(PID.TID 0000.0001) 
(PID.TID 0000.0001) // ======================================================
(PID.TID 0000.0001) //                      MITgcm UV
(PID.TID 0000.0001) //                      =========
(PID.TID 0000.0001) // ======================================================
(PID.TID 0000.0001) // execution environment starting up...
(PID.TID 0000.0001) // Run starting Wed Apr  1 14:19:48 1998
(PID.TID 0000.0001) // on melville.lcs.mit.edu
(PID.TID 0000.0001) // account cnh
(PID.TID 0000.0001) // MITgcm UV Release: $Name:  $
(PID.TID 0000.0001) 
(PID.TID 0000.0001) // =======================================================
(PID.TID 0000.0001) // Execution Environment parameter file "eedata"
(PID.TID 0000.0001) // =======================================================
(PID.TID 0000.0001) ># Example "eedata" file
(PID.TID 0000.0001) ># Lines beginning "#" are comments
(PID.TID 0000.0001) ># nTx - No. threads per process in X
(PID.TID 0000.0001) ># nTy - No. threads per process in Y
(PID.TID 0000.0001) > &EEPARMS
(PID.TID 0000.0001) > nTx=1,nTy=1
(PID.TID 0000.0001) > /
(PID.TID 0000.0001) ># Note: Some systems use & as the
(PID.TID 0000.0001) ># namelist terminator. Other systems
(PID.TID 0000.0001) ># use a / character (as shown here).
(PID.TID 0000.0001) 
(PID.TID 0000.0001) // =======================================================
(PID.TID 0000.0001) // Computational Grid Specification ( see files "SIZE.h" )
(PID.TID 0000.0001) //                                  ( and "eedata"       )
(PID.TID 0000.0001) // =======================================================
(PID.TID 0000.0001)      nPx =    1 ; /* No. processes in X */
(PID.TID 0000.0001)      nPy =    1 ; /* No. processes in Y */
(PID.TID 0000.0001)      nSx =    1 ; /* No. tiles in X per process */
(PID.TID 0000.0001)      nSy =    1 ; /* No. tiles in Y per process */
(PID.TID 0000.0001)      sNx =   90 ; /* Tile size in X */
(PID.TID 0000.0001)      sNy =   40 ; /* Tile size in Y */
(PID.TID 0000.0001)      OLx =    3 ; /* Tile overlap distance in X */
(PID.TID 0000.0001)      OLy =    3 ; /* Tile overlap distance in Y */
(PID.TID 0000.0001)      nTx =    1 ; /* No. threads in X per process */
(PID.TID 0000.0001)      nTy =    1 ; /* No. threads in Y per process */
(PID.TID 0000.0001)       Nr =   15 ; /* No. levels in the vertical   */
(PID.TID 0000.0001)       nX =   90 ; /* Total domain size in X ( = nPx*nSx*sNx ) */
(PID.TID 0000.0001)       nY =   40 ; /* Total domain size in Y ( = nPy*nSy*sNy ) */
(PID.TID 0000.0001)   nTiles =    1 ; /* Total no. tiles per process ( = nSx*nSy ) */
(PID.TID 0000.0001)   nProcs =    1 ; /* Total no. processes ( = nPx*nPy ) */
(PID.TID 0000.0001) nThreads =    1 ; /* Total no. threads per process ( = nTx*nTy ) */
(PID.TID 0000.0001) usingMPI =    F ; /* Flag used to control whether MPI is in use */
(PID.TID 0000.0001)                   /*  note: To execute a program with MPI calls */
(PID.TID 0000.0001)                   /*  it must be launched appropriately e.g     */
(PID.TID 0000.0001)                   /*  "mpirun -np 64 ......"                    */
(PID.TID 0000.0001) 
(PID.TID 0000.0001) // ======================================================
(PID.TID 0000.0001) // Mapping of tiles to threads
(PID.TID 0000.0001) // ======================================================
(PID.TID 0000.0001) // -o- Thread   1, tiles (   1:   1,   1:   1)
(PID.TID 0000.0001) 
(PID.TID 0000.0001) // ======================================================
(PID.TID 0000.0001) // Tile <-> Tile connectvity table
(PID.TID 0000.0001) // ======================================================
(PID.TID 0000.0001) // Tile number: 000001 (process no. = 000001)
(PID.TID 0000.0001) //        WEST: Tile = 000001, Process = 000001, Comm = put
(PID.TID 0000.0001) //                bi = 000001, bj = 000001
(PID.TID 0000.0001) //        EAST: Tile = 000001, Process = 000001, Comm = put
(PID.TID 0000.0001) //                bi = 000001, bj = 000001
(PID.TID 0000.0001) //       SOUTH: Tile = 000001, Process = 000001, Comm = put
(PID.TID 0000.0001) //                bi = 000001, bj = 000001
(PID.TID 0000.0001) //       NORTH: Tile = 000001, Process = 000001, Comm = put
(PID.TID 0000.0001) //                bi = 000001, bj = 000001
(PID.TID 0000.0001) 
(PID.TID 0000.0001) // =======================================================
(PID.TID 0000.0001) // Model parameter file "data"
(PID.TID 0000.0001) // =======================================================
(PID.TID 0000.0001) ># ====================
(PID.TID 0000.0001) ># | Model parameters |
(PID.TID 0000.0001) ># ====================
(PID.TID 0000.0001) >#
(PID.TID 0000.0001) ># Continuous equation parameters
(PID.TID 0000.0001) > &PARM01
(PID.TID 0000.0001) > tRef = 15*20.,
(PID.TID 0000.0001) > sRef = 15*35.,
(PID.TID 0000.0001) > viscAr=1.E-3,
(PID.TID 0000.0001) > viscAh=5.E5,
(PID.TID 0000.0001) > diffKhT=0.0,
(PID.TID 0000.0001) > diffKrT=3.E-5,
(PID.TID 0000.0001) > diffKhS=0.0,
(PID.TID 0000.0001) > diffKrS=3.E-5,
(PID.TID 0000.0001) > rhonil=1035.,
(PID.TID 0000.0001) > gravity=9.81,
(PID.TID 0000.0001) >#ph( new test
(PID.TID 0000.0001) > eosType = 'JMD95Z',
(PID.TID 0000.0001) ># eosType = 'POLY3',
(PID.TID 0000.0001) >#ph)
(PID.TID 0000.0001) > ivdc_kappa=100.,
(PID.TID 0000.0001) > implicitDiffusion=.TRUE.,
(PID.TID 0000.0001) > allowFreezing=.TRUE.,
(PID.TID 0000.0001) > useRealFreshWaterFlux=.TRUE.,
(PID.TID 0000.0001) >#ph( new test
(PID.TID 0000.0001) > useCDscheme=.FALSE.,
(PID.TID 0000.0001) > vectorInvariantMomentum=.TRUE.,
(PID.TID 0000.0001) > exactConserv = .TRUE.,
(PID.TID 0000.0001) >#ph)
(PID.TID 0000.0001) ># turn on looped cells
(PID.TID 0000.0001) > hFacMin=.05,
(PID.TID 0000.0001) > hFacMindr=50.,
(PID.TID 0000.0001) ># set precision of data files
(PID.TID 0000.0001) > readBinaryPrec=32,
(PID.TID 0000.0001) > &
(PID.TID 0000.0001) >
(PID.TID 0000.0001) ># Elliptic solver parameters
(PID.TID 0000.0001) > &PARM02
(PID.TID 0000.0001) > cg2dMaxIters=500,
(PID.TID 0000.0001) > cg2dTargetResidual=1.E-13,
(PID.TID 0000.0001) > &
(PID.TID 0000.0001) >
(PID.TID 0000.0001) ># Time stepping parameters
(PID.TID 0000.0001) > &PARM03
(PID.TID 0000.0001) > nIter0 =      0,
(PID.TID 0000.0001) > nTimeSteps = 120,
(PID.TID 0000.0001) ># 100 years of integration will yield a reasonable flow field
(PID.TID 0000.0001) ># startTime  =          0.,
(PID.TID 0000.0001) ># endTime    = 3110400000.,
(PID.TID 0000.0001) > deltaTmom = 1200.0,
(PID.TID 0000.0001) ># tauCD =     321428.,
(PID.TID 0000.0001) > deltaTtracer= 43200.0,
(PID.TID 0000.0001) > deltaTClock = 43200.0,
(PID.TID 0000.0001) ># if you are using a version later than checkpoint45d on the main branch
(PID.TID 0000.0001) ># you can uncomment the following line and increase the time step
(PID.TID 0000.0001) ># deltaTtracer and deltaTClock to 172800.0 as well to speed up the
(PID.TID 0000.0001) ># asynchronous time stepping
(PID.TID 0000.0001) ># deltaTfreesurf = 172800.0,
(PID.TID 0000.0001) > abEps = 0.1,
(PID.TID 0000.0001) > pChkptFreq= 311040000.,
(PID.TID 0000.0001) > dumpFreq=   311040000.,
(PID.TID 0000.0001) > dumpFreq=   864000.,
(PID.TID 0000.0001) > taveFreq=   311040000.,
(PID.TID 0000.0001) > taveFreq=   864000.,
(PID.TID 0000.0001) >#monitorFreq=31104000.,
(PID.TID 0000.0001) > monitorFreq=1.,
(PID.TID 0000.0001) ># 2 months restoring timescale for temperature
(PID.TID 0000.0001) > tauThetaClimRelax =  5184000.0,
(PID.TID 0000.0001) ># 6 months restoring timescale for salinity
(PID.TID 0000.0001) > tauSaltClimRelax = 15552000.0,
(PID.TID 0000.0001) > periodicExternalForcing=.TRUE.,
(PID.TID 0000.0001) > externForcingPeriod=2592000.,
(PID.TID 0000.0001) > externForcingCycle=31104000.,
(PID.TID 0000.0001) > &
(PID.TID 0000.0001) >
(PID.TID 0000.0001) ># Gridding parameters
(PID.TID 0000.0001) > &PARM04
(PID.TID 0000.0001) > usingCartesianGrid=.FALSE.,
(PID.TID 0000.0001) > usingSphericalPolarGrid=.TRUE.,
(PID.TID 0000.0001) > delR= 50., 70., 100., 140., 190.,
(PID.TID 0000.0001) >       240., 290., 340., 390., 440.,
(PID.TID 0000.0001) >       490., 540., 590., 640., 690.,
(PID.TID 0000.0001) > phiMin=-80.,
(PID.TID 0000.0001) > dySpacing=4.,
(PID.TID 0000.0001) > dxSpacing=4.,
(PID.TID 0000.0001) > &
(PID.TID 0000.0001) >
(PID.TID 0000.0001) ># Input datasets
(PID.TID 0000.0001) > &PARM05
(PID.TID 0000.0001) > bathyFile=      'bathymetry.bin',
(PID.TID 0000.0001) > hydrogThetaFile='lev_t.bin',
(PID.TID 0000.0001) > hydrogSaltFile= 'lev_s.bin',
(PID.TID 0000.0001) > zonalWindFile=  'trenberth_taux.bin',
(PID.TID 0000.0001) > meridWindFile=  'trenberth_tauy.bin',
(PID.TID 0000.0001) > thetaClimFile=  'lev_sst.bin',
(PID.TID 0000.0001) > saltClimFile=   'lev_sss.bin',
(PID.TID 0000.0001) > surfQFile=      'ncep_qnet.bin',
(PID.TID 0000.0001) ># fresh water flux is turned off, uncomment next line to turn on
(PID.TID 0000.0001) ># (not recommened together with surface salinity restoring)
(PID.TID 0000.0001) ># EmPmRFile=      'ncep_emp.bin',
(PID.TID 0000.0001) > &
(PID.TID 0000.0001) 
(PID.TID 0000.0001) S/R INI_PARMS ; read PARM01 : OK
(PID.TID 0000.0001) S/R INI_PARMS ; read PARM02 : OK
(PID.TID 0000.0001) S/R INI_PARMS ; read PARM03 : OK
(PID.TID 0000.0001) S/R INI_PARMS ; read PARM04 : OK
(PID.TID 0000.0001) S/R INI_PARMS ; read PARM05 : OK
(PID.TID 0000.0001)  MDSREADFIELD: opening global file: bathymetry.bin
(PID.TID 0000.0001) // =======================================================
(PID.TID 0000.0001) // Field Model R_low (ini_masks_etc) at iteration          1
(PID.TID 0000.0001) // CMIN =         -5.200000000000000E+03
(PID.TID 0000.0001) // CMAX =         -1.200000000000000E+02
(PID.TID 0000.0001) // CINT =          1.881481481481482E+02
(PID.TID 0000.0001) // SYMBOLS (CMIN->CMAX): -abcdefghijklmnopqrstuvwxyz+
(PID.TID 0000.0001) //                  0.0: .
(PID.TID 0000.0001) // RANGE I (Lo:Hi:Step):(  -2:  93:   1)
(PID.TID 0000.0001) // RANGE J (Lo:Hi:Step):(  43:  -2:  -1)
(PID.TID 0000.0001) // RANGE K (Lo:Hi:Step):(   1:   1:   1)
(PID.TID 0000.0001) // =======================================================
(PID.TID 0000.0001) K =   1
(PID.TID 0000.0001) //                I=7       I=17      I=27      I=37      I=47      I=57      I=67      I=77      I=87
(PID.TID 0000.0001) // |--J--|**0123456|890123456|890123456|890123456|890123456|890123456|890123456|890123456|890123456|890123
(PID.TID 0000.0001) //     43 ................................................................................................
(PID.TID 0000.0001) //     42 .............................................zyxxmgfeeefefgimnpwwwy..+zyy.....yyyyoiiihhz+......
(PID.TID 0000.0001) //     41 ................................................................................................
(PID.TID 0000.0001) //     40 +qlloqz+.++++zzz++++++..................................................................+++qlloq
(PID.TID 0000.0001) //     39 uslloorzzzzzzzzz+...++.....................................................yxxz........+zvuslloo
(PID.TID 0000.0001) //     38 smqpporzzzzzz+++...........................................................zxxy+......zyyvsmqppo
(PID.TID 0000.0001) //     37 smmmuz..................................................................++...zy+...yttyy.+smmmuz
(PID.TID 0000.0001) //     36 yutt+.........................................mm++....................+++++++znmm.yoowssvuyutt+.
(PID.TID 0000.0001) //     35 w++++.................................+zzz..rrmmkk+...+gghn...........+++....+nmiijlsoopuww++++.
(PID.TID 0000.0001) //     34 +.....................................+vvy.ggqyxv+y.ccdffhim..................+nihhikkihhm+.....
(PID.TID 0000.0001) //     33 w+.....................................uuz---h------aaabdefin+.................zqvddflifffw+....
(PID.TID 0000.0001) //     32 m+.....................................+t----h---------acdfgnn................+++gdffkofffm+....
(PID.TID 0000.0001) //     31 m......................................-----ad--------abddegil..............qbaafccdhqqgddm.....
(PID.TID 0000.0001) //     30 i.....................................f----b--b------------abd............zfbb--fbcdosjfddi.....
(PID.TID 0000.0001) //     29 i...................................tu----e---fjg----------abdf...........eaac--abfmijaadgi.....
(PID.TID 0000.0001) //     28 z.................................+xfl-------------------bdedefi.........qbaa---aemfbbaaejz.....
(PID.TID 0000.0001) //     27 .................xx..............+wfgfpf--------eallc---bbbccefgi...+++x.qb-----akfa---ah.......
(PID.TID 0000.0001) //     26 .................xnn...........+vd---dna------a--aicfna---aabdfghku.++xssuy-----bgca---ci.......
(PID.TID 0000.0001) //     25 .................iiik...oo+...+ivd---doaa-bc--ilglf--aa---aabcghhkll...ssum+xaaacjbaabdjk.......
(PID.TID 0000.0001) //     24 ...............xnheeft.kkk+...uii.aagdm----aa-----a-------bbbcdefjljjju.zummwwbbchba--abi.......
(PID.TID 0000.0001) //     23 ...............xgheefp.iikw...uuw..fihi----fed-----eaaa--bbbbcdfflkjiiiq....zykccefa--abd.......
(PID.TID 0000.0001) //     22 quss...........bbelffslffkk...zz.wqkeeqoheccdfa-----egabaabcdddegghliiiqq......xeeehheehccquss..
(PID.TID 0000.0001) //     21 cbbeir........nbbcdjhqdddiiz.....wqfeelgghmedea-----bibbcddddddefghklnqoo........ieeflhgcccbbeir
(PID.TID 0000.0001) //     20 cbbder.......ldcccdgkccccidd......z.vkkktqqhegg----aaacddddddddefghkiiijl.........nhfa--gfcbbder
(PID.TID 0000.0001) //     19 hcdaaf.......kddosggpaaaibbccx...+z+.....r+nlec---agaaabcddccddefikfgffff...........d---cjhcdaaf
(PID.TID 0000.0001) //     18 hd---d.......kglggvliaaaibbcaaeaiv++...qqzolhecccfdgkaabcdfccdeeikgfgffdd+..........d---djhd---d
(PID.TID 0000.0001) //     17 hc---c.......l.feewlfaaaoaa----aiv.....qqnllslmlofcdbaacceffffhhligfigeddj.........hd---ckhc---c
(PID.TID 0000.0001) //     16 gba--c......tn.ddgnlfdaaqa-----lv.......vnllvllnwv--accivomfffhilhgfffeddjf........re--aeigba--c
(PID.TID 0000.0001) //     15 fb--dpz....+ll.ccdfhmdddlc----av.........otsxoomv---abccddfihgijkhgfffeejfff......+fd---ckfb--dp
(PID.TID 0000.0001) //     14 fc--mcl....weeqbaafilkfend--eagy.........hhstofft----aacdheefijkmjhhjijiffff.....zlfdaaadlfc--mc
(PID.TID 0000.0001) //     13 hcclbbg....nccobaaiddgkffqrqeaal.........eeutqfft------aaceeffhijlkjhhigfffq....+jgfodccflhcclbb
(PID.TID 0000.0001) //     12 hhgaaacw+iiicclemhdddfliigfdcaabfaaaz....ccsurqpc--------abcifffikiiihhggff.....kbbbdfffglhhgaaa
(PID.TID 0000.0001) //     11 kgcaaacbbifccennhbbdefnihgfdccaaaa----..dcccnt.ncab-------aabcdfilhggjiggff....l---abcefjlkgcaaa
(PID.TID 0000.0001) //     10 kfcaaccbdaacfrllfbbdegkmmljhfdddba----d.dcccfx.nyrebaba----abcdgilhfeegijgi..+w--aa-abcfilkfcaac
(PID.TID 0000.0001) //      9 lffcdcccaaaoqsolfdeehikihhlllgfedcccccdmdcccf.vyfaaaaaaaa--abdehmjhfeeefglv.++w-----abcdfklffcdc
(PID.TID 0000.0001) //      8 liffjklcaafddffeeccvznkfffhhhlkjifgjkkfeeddfsyvcaaaaaaccdcccdfgjligedbbceg+.++xffn--cfddefliffjk
(PID.TID 0000.0001) //      7 hmqnnbbkkf--bmbaabbgtykfddeffeeddccdfhlffeelfbaaaaaacddeghgjgjlligeddaaabedfiiiiiisvkfkecchmqnnb
(PID.TID 0000.0001) //      6 cca-------------aabcelttdddedddddccccdfkkiiffbaaaabcdgimmkmefecaaabbbaaabbdfiiiiispmmregifcca---
(PID.TID 0000.0001) //      5 --------a-------aaccehhhiddeddddddcccdfiikomodddefffmlmigedccaaaaaaaababbbdfiijsqgeccccbaa------
(PID.TID 0000.0001) //      4 --ahebaabbbbbeihffgijiiiijpywnnpokkomkiiijmmmolkommmgffeeedccaaaaaabbcccefhmz..yjgeccccbaa--aheb
(PID.TID 0000.0001) //      3 gffhhrpjiiwyy............................yxotmjjjjgfeeeeeeddeffffheddeghjkyy..yqjgeddccdbbgffhhr
(PID.TID 0000.0001) //      2 .............................................zyxxmgfeeefefgimnpwwwy..+zyy.....yyyyoiiihhz+......
(PID.TID 0000.0001) //      1 ................................................................................................
(PID.TID 0000.0001) //      0 +qlloqz+.++++zzz++++++..................................................................+++qlloq
(PID.TID 0000.0001) //     -1 uslloorzzzzzzzzz+...++.....................................................yxxz........+zvuslloo
(PID.TID 0000.0001) //     -2 ................................................................................................
(PID.TID 0000.0001) // =======================================================
(PID.TID 0000.0001) // END OF FIELD                                          =
(PID.TID 0000.0001) // =======================================================
(PID.TID 0000.0001) 
(PID.TID 0000.0001) // =======================================================
(PID.TID 0000.0001) // Field Model Ro_surf (ini_masks_etc) at iteration          1
(PID.TID 0000.0001) // CMIN =          1.000000000000000E+32
(PID.TID 0000.0001) // CMAX =         -1.000000000000000E+32
(PID.TID 0000.0001) // CINT =          0.000000000000000E+00
(PID.TID 0000.0001) // SYMBOLS (CMIN->CMAX): -abcdefghijklmnopqrstuvwxyz+
(PID.TID 0000.0001) //                  0.0: .
(PID.TID 0000.0001) // RANGE I (Lo:Hi:Step):(  -2:  93:   1)
(PID.TID 0000.0001) // RANGE J (Lo:Hi:Step):(  43:  -2:  -1)
(PID.TID 0000.0001) // RANGE K (Lo:Hi:Step):(   1:   1:   1)
(PID.TID 0000.0001) // =======================================================
(PID.TID 0000.0001) K =   1
(PID.TID 0000.0001) //                I=7       I=17      I=27      I=37      I=47      I=57      I=67      I=77      I=87
(PID.TID 0000.0001) // |--J--|**0123456|890123456|890123456|890123456|890123456|890123456|890123456|890123456|890123456|890123
(PID.TID 0000.0001) //     43 ................................................................................................
(PID.TID 0000.0001) //     42 ................................................................................................
(PID.TID 0000.0001) //     41 ................................................................................................
(PID.TID 0000.0001) //     40 ................................................................................................
(PID.TID 0000.0001) //     39 ................................................................................................
(PID.TID 0000.0001) //     38 ................................................................................................
(PID.TID 0000.0001) //     37 ................................................................................................
(PID.TID 0000.0001) //     36 ................................................................................................
(PID.TID 0000.0001) //     35 ................................................................................................
(PID.TID 0000.0001) //     34 ................................................................................................
(PID.TID 0000.0001) //     33 ................................................................................................
(PID.TID 0000.0001) //     32 ................................................................................................
(PID.TID 0000.0001) //     31 ................................................................................................
(PID.TID 0000.0001) //     30 ................................................................................................
(PID.TID 0000.0001) //     29 ................................................................................................
(PID.TID 0000.0001) //     28 ................................................................................................
(PID.TID 0000.0001) //     27 ................................................................................................
(PID.TID 0000.0001) //     26 ................................................................................................
(PID.TID 0000.0001) //     25 ................................................................................................
(PID.TID 0000.0001) //     24 ................................................................................................
(PID.TID 0000.0001) //     23 ................................................................................................
(PID.TID 0000.0001) //     22 ................................................................................................
(PID.TID 0000.0001) //     21 ................................................................................................
(PID.TID 0000.0001) //     20 ................................................................................................
(PID.TID 0000.0001) //     19 ................................................................................................
(PID.TID 0000.0001) //     18 ................................................................................................
(PID.TID 0000.0001) //     17 ................................................................................................
(PID.TID 0000.0001) //     16 ................................................................................................
(PID.TID 0000.0001) //     15 ................................................................................................
(PID.TID 0000.0001) //     14 ................................................................................................
(PID.TID 0000.0001) //     13 ................................................................................................
(PID.TID 0000.0001) //     12 ................................................................................................
(PID.TID 0000.0001) //     11 ................................................................................................
(PID.TID 0000.0001) //     10 ................................................................................................
(PID.TID 0000.0001) //      9 ................................................................................................
(PID.TID 0000.0001) //      8 ................................................................................................
(PID.TID 0000.0001) //      7 ................................................................................................
(PID.TID 0000.0001) //      6 ................................................................................................
(PID.TID 0000.0001) //      5 ................................................................................................
(PID.TID 0000.0001) //      4 ................................................................................................
(PID.TID 0000.0001) //      3 ................................................................................................
(PID.TID 0000.0001) //      2 ................................................................................................
(PID.TID 0000.0001) //      1 ................................................................................................
(PID.TID 0000.0001) //      0 ................................................................................................
(PID.TID 0000.0001) //     -1 ................................................................................................
(PID.TID 0000.0001) //     -2 ................................................................................................
(PID.TID 0000.0001) // =======================================================
(PID.TID 0000.0001) // END OF FIELD                                          =
(PID.TID 0000.0001) // =======================================================
(PID.TID 0000.0001) 
(PID.TID 0000.0001) // =======================================================
(PID.TID 0000.0001) // Field hFacC at iteration          1
(PID.TID 0000.0001) // CMIN =          1.000000000000000E+00
(PID.TID 0000.0001) // CMAX =          1.000000000000000E+00
(PID.TID 0000.0001) // CINT =          0.000000000000000E+00
(PID.TID 0000.0001) // SYMBOLS (CMIN->CMAX): -abcdefghijklmnopqrstuvwxyz+
(PID.TID 0000.0001) //                  0.0: .
(PID.TID 0000.0001) // RANGE I (Lo:Hi:Step):(  -2:  93:   1)
(PID.TID 0000.0001) // RANGE J (Lo:Hi:Step):(  43:  -2:  -1)
(PID.TID 0000.0001) // RANGE K (Lo:Hi:Step):(   1:   1:   1)
(PID.TID 0000.0001) // =======================================================
(PID.TID 0000.0001) K =   1
(PID.TID 0000.0001) //                I=7       I=17      I=27      I=37      I=47      I=57      I=67      I=77      I=87
(PID.TID 0000.0001) // |--J--|**0123456|890123456|890123456|890123456|890123456|890123456|890123456|890123456|890123456|890123
(PID.TID 0000.0001) //     43 ................................................................................................
(PID.TID 0000.0001) //     42 .............................................----------------------..----.....------------......
(PID.TID 0000.0001) //     41 ................................................................................................
(PID.TID 0000.0001) //     40 --------.-------------..................................................................--------
(PID.TID 0000.0001) //     39 -----------------...--.....................................................----........---------
(PID.TID 0000.0001) //     38 ----------------...........................................................-----......----------
(PID.TID 0000.0001) //     37 ------..................................................................--...---...-----.-------
(PID.TID 0000.0001) //     36 -----.........................................----....................-----------.-------------.
(PID.TID 0000.0001) //     35 -----.................................----..-------...-----...........---....------------------.
(PID.TID 0000.0001) //     34 -.....................................----.--------.--------..................-------------.....
(PID.TID 0000.0001) //     33 --.....................................-----------------------.................-------------....
(PID.TID 0000.0001) //     32 --.....................................-----------------------................--------------....
(PID.TID 0000.0001) //     31 -......................................-----------------------..............---------------.....
(PID.TID 0000.0001) //     30 -.....................................------------------------............-----------------.....
(PID.TID 0000.0001) //     29 -...................................---------------------------...........-----------------.....
(PID.TID 0000.0001) //     28 -.................................------------------------------.........------------------.....
(PID.TID 0000.0001) //     27 .................--..............--------------------------------...----.----------------.......
(PID.TID 0000.0001) //     26 .................---...........------------------------------------.---------------------.......
(PID.TID 0000.0001) //     25 .................----...---...--------------------------------------...------------------.......
(PID.TID 0000.0001) //     24 ...............-------.----...---.-------------------------------------.-----------------.......
(PID.TID 0000.0001) //     23 ...............-------.----...---..-------------------------------------....-------------.......
(PID.TID 0000.0001) //     22 ----...........------------...--.----------------------------------------......---------------..
(PID.TID 0000.0001) //     21 ------........--------------.....----------------------------------------........---------------
(PID.TID 0000.0001) //     20 ------.......---------------......-.-------------------------------------.........--------------
(PID.TID 0000.0001) //     19 ------.......-----------------...---.....--------------------------------...........------------
(PID.TID 0000.0001) //     18 ------.......-----------------------...-----------------------------------..........------------
(PID.TID 0000.0001) //     17 ------.......-.-------------------.....-----------------------------------.........-------------
(PID.TID 0000.0001) //     16 ------......--.------------------.......-----------------------------------........-------------
(PID.TID 0000.0001) //     15 -------....---.-----------------.........-----------------------------------......--------------
(PID.TID 0000.0001) //     14 -------....---------------------.........-----------------------------------.....---------------
(PID.TID 0000.0001) //     13 -------....---------------------.........-----------------------------------....----------------
(PID.TID 0000.0001) //     12 -------------------------------------....----------------------------------.....----------------
(PID.TID 0000.0001) //     11 --------------------------------------..------.----------------------------....-----------------
(PID.TID 0000.0001) //     10 ---------------------------------------.------.----------------------------..-------------------
(PID.TID 0000.0001) //      9 ---------------------------------------------.-----------------------------.--------------------
(PID.TID 0000.0001) //      8 ---------------------------------------------------------------------------.--------------------
(PID.TID 0000.0001) //      7 ------------------------------------------------------------------------------------------------
(PID.TID 0000.0001) //      6 ------------------------------------------------------------------------------------------------
(PID.TID 0000.0001) //      5 ------------------------------------------------------------------------------------------------
(PID.TID 0000.0001) //      4 -----------------------------------------------------------------------------..-----------------
(PID.TID 0000.0001) //      3 -------------............................-----------------------------------..------------------
(PID.TID 0000.0001) //      2 .............................................----------------------..----.....------------......
(PID.TID 0000.0001) //      1 ................................................................................................
(PID.TID 0000.0001) //      0 --------.-------------..................................................................--------
(PID.TID 0000.0001) //     -1 -----------------...--.....................................................----........---------
(PID.TID 0000.0001) //     -2 ................................................................................................
(PID.TID 0000.0001) // =======================================================
(PID.TID 0000.0001) // END OF FIELD                                          =
(PID.TID 0000.0001) // =======================================================
(PID.TID 0000.0001) 
(PID.TID 0000.0001) // =======================================================
(PID.TID 0000.0001) // Field hFacW at iteration          1
(PID.TID 0000.0001) // CMIN =          1.000000000000000E+00
(PID.TID 0000.0001) // CMAX =          1.000000000000000E+00
(PID.TID 0000.0001) // CINT =          0.000000000000000E+00
(PID.TID 0000.0001) // SYMBOLS (CMIN->CMAX): -abcdefghijklmnopqrstuvwxyz+
(PID.TID 0000.0001) //                  0.0: .
(PID.TID 0000.0001) // RANGE I (Lo:Hi:Step):(  -2:  93:   1)
(PID.TID 0000.0001) // RANGE J (Lo:Hi:Step):(  43:  -2:  -1)
(PID.TID 0000.0001) // RANGE K (Lo:Hi:Step):(   1:   1:   1)
(PID.TID 0000.0001) // =======================================================
(PID.TID 0000.0001) K =   1
(PID.TID 0000.0001) //                I=7       I=17      I=27      I=37      I=47      I=57      I=67      I=77      I=87
(PID.TID 0000.0001) // |--J--|**0123456|890123456|890123456|890123456|890123456|890123456|890123456|890123456|890123456|890123
(PID.TID 0000.0001) //     43 -------------.............................----------------------------------...-----------------
(PID.TID 0000.0001) //     42 ..............................................---------------------...---......-----------......
(PID.TID 0000.0001) //     41 ................................................................................................
(PID.TID 0000.0001) //     40 --------..------------...................................................................-------
(PID.TID 0000.0001) //     39 -----------------....-......................................................---.........--------
(PID.TID 0000.0001) //     38 ----------------............................................................----.......---------
(PID.TID 0000.0001) //     37 ------...................................................................-....--....----..------
(PID.TID 0000.0001) //     36 -----..........................................---.....................----------..------------.
(PID.TID 0000.0001) //     35 -----..................................---...------....----............--.....-----------------.
(PID.TID 0000.0001) //     34 -......................................---..-------..-------...................------------.....
(PID.TID 0000.0001) //     33 --......................................----------------------..................------------....
(PID.TID 0000.0001) //     32 --......................................----------------------.................-------------....
(PID.TID 0000.0001) //     31 -.......................................----------------------...............--------------.....
(PID.TID 0000.0001) //     30 -......................................-----------------------.............----------------.....
(PID.TID 0000.0001) //     29 -....................................--------------------------............----------------.....
(PID.TID 0000.0001) //     28 -..................................-----------------------------..........-----------------.....
(PID.TID 0000.0001) //     27 ..................-...............-------------------------------....---..---------------.......
(PID.TID 0000.0001) //     26 ..................--............-----------------------------------..--------------------.......
(PID.TID 0000.0001) //     25 ..................---....--....-------------------------------------....-----------------.......
(PID.TID 0000.0001) //     24 ................------..---....--..------------------------------------..----------------.......
(PID.TID 0000.0001) //     23 ................------..---....--...------------------------------------.....------------.......
(PID.TID 0000.0001) //     22 ----............-----------....-..---------------------------------------.......--------------..
(PID.TID 0000.0001) //     21 ------.........-------------......---------------------------------------.........--------------
(PID.TID 0000.0001) //     20 ------........--------------.........------------------------------------..........-------------
(PID.TID 0000.0001) //     19 ------........----------------....--......-------------------------------............-----------
(PID.TID 0000.0001) //     18 ------........----------------------....----------------------------------...........-----------
(PID.TID 0000.0001) //     17 ------..........------------------......----------------------------------..........------------
(PID.TID 0000.0001) //     16 ------.......-..-----------------........----------------------------------.........------------
(PID.TID 0000.0001) //     15 -------.....--..----------------..........----------------------------------.......-------------
(PID.TID 0000.0001) //     14 -------.....--------------------..........----------------------------------......--------------
(PID.TID 0000.0001) //     13 -------.....--------------------..........----------------------------------.....---------------
(PID.TID 0000.0001) //     12 -------------------------------------.....---------------------------------......---------------
(PID.TID 0000.0001) //     11 --------------------------------------...-----..---------------------------.....----------------
(PID.TID 0000.0001) //     10 ---------------------------------------..-----..---------------------------...------------------
(PID.TID 0000.0001) //      9 ---------------------------------------------..----------------------------..-------------------
(PID.TID 0000.0001) //      8 ---------------------------------------------------------------------------..-------------------
(PID.TID 0000.0001) //      7 ------------------------------------------------------------------------------------------------
(PID.TID 0000.0001) //      6 ------------------------------------------------------------------------------------------------
(PID.TID 0000.0001) //      5 ------------------------------------------------------------------------------------------------
(PID.TID 0000.0001) //      4 -----------------------------------------------------------------------------...----------------
(PID.TID 0000.0001) //      3 -------------.............................----------------------------------...-----------------
(PID.TID 0000.0001) //      2 ..............................................---------------------...---......-----------......
(PID.TID 0000.0001) //      1 ................................................................................................
(PID.TID 0000.0001) //      0 --------..------------...................................................................-------
(PID.TID 0000.0001) //     -1 -----------------....-......................................................---.........--------
(PID.TID 0000.0001) //     -2 ----------------............................................................----.......---------
(PID.TID 0000.0001) // =======================================================
(PID.TID 0000.0001) // END OF FIELD                                          =
(PID.TID 0000.0001) // =======================================================
(PID.TID 0000.0001) 
(PID.TID 0000.0001) // =======================================================
(PID.TID 0000.0001) // Field hFacS at iteration          1
(PID.TID 0000.0001) // CMIN =          1.000000000000000E+00
(PID.TID 0000.0001) // CMAX =          1.000000000000000E+00
(PID.TID 0000.0001) // CINT =          0.000000000000000E+00
(PID.TID 0000.0001) // SYMBOLS (CMIN->CMAX): -abcdefghijklmnopqrstuvwxyz+
(PID.TID 0000.0001) //                  0.0: .
(PID.TID 0000.0001) // RANGE I (Lo:Hi:Step):(  -2:  93:   1)
(PID.TID 0000.0001) // RANGE J (Lo:Hi:Step):(  43:  -2:  -1)
(PID.TID 0000.0001) // RANGE K (Lo:Hi:Step):(   1:   1:   1)
(PID.TID 0000.0001) // =======================================================
(PID.TID 0000.0001) K =   1
(PID.TID 0000.0001) //                I=7       I=17      I=27      I=37      I=47      I=57      I=67      I=77      I=87
(PID.TID 0000.0001) // |--J--|**0123456|890123456|890123456|890123456|890123456|890123456|890123456|890123456|890123456|890123
(PID.TID 0000.0001) //     43 .............................................----------------------..----.....------------......
(PID.TID 0000.0001) //     42 ................................................................................................
(PID.TID 0000.0001) //     41 ................................................................................................
(PID.TID 0000.0001) //     40 --------.--------...--..................................................................--------
(PID.TID 0000.0001) //     39 ----------------...........................................................----........---------
(PID.TID 0000.0001) //     38 ------.......................................................................---......--.-------
(PID.TID 0000.0001) //     37 -----...................................................................--...---...-----.------.
(PID.TID 0000.0001) //     36 -----.........................................----....................---....----.-------------.
(PID.TID 0000.0001) //     35 -.....................................----..-------...-----...................-------------.....
(PID.TID 0000.0001) //     34 -......................................---.--------.--------...................------------.....
(PID.TID 0000.0001) //     33 --.....................................-----------------------.................-------------....
(PID.TID 0000.0001) //     32 -......................................-----------------------................-------------.....
(PID.TID 0000.0001) //     31 -......................................-----------------------..............---------------.....
(PID.TID 0000.0001) //     30 -.....................................------------------------............-----------------.....
(PID.TID 0000.0001) //     29 -...................................---------------------------...........-----------------.....
(PID.TID 0000.0001) //     28 ..................................------------------------------.........----------------.......
(PID.TID 0000.0001) //     27 .................--..............--------------------------------...----.----------------.......
(PID.TID 0000.0001) //     26 .................---...........------------------------------------....------------------.......
(PID.TID 0000.0001) //     25 .................----...---...---.----------------------------------....-----------------.......
(PID.TID 0000.0001) //     24 ...............-------.----...---..------------------------------------.....-------------.......
(PID.TID 0000.0001) //     23 ...............-------.----...--...-------------------------------------.......----------.......
(PID.TID 0000.0001) //     22 ----...........------------......----------------------------------------........-------------..
(PID.TID 0000.0001) //     21 ------........--------------......-.-------------------------------------.........--------------
(PID.TID 0000.0001) //     20 ------.......---------------......-......--------------------------------...........------------
(PID.TID 0000.0001) //     19 ------.......-----------------...---.....--------------------------------...........------------
(PID.TID 0000.0001) //     18 ------.......-.-------------------.....-----------------------------------..........------------
(PID.TID 0000.0001) //     17 ------.......-.------------------.......----------------------------------.........-------------
(PID.TID 0000.0001) //     16 ------......--.-----------------.........----------------------------------........-------------
(PID.TID 0000.0001) //     15 -------....---.-----------------.........-----------------------------------......--------------
(PID.TID 0000.0001) //     14 -------....---------------------.........-----------------------------------.....---------------
(PID.TID 0000.0001) //     13 -------....---------------------.........----------------------------------.....----------------
(PID.TID 0000.0001) //     12 -------------------------------------....-----.----------------------------.....----------------
(PID.TID 0000.0001) //     11 --------------------------------------..------.----------------------------....-----------------
(PID.TID 0000.0001) //     10 ---------------------------------------.-----..----------------------------..-------------------
(PID.TID 0000.0001) //      9 ---------------------------------------------.-----------------------------.--------------------
(PID.TID 0000.0001) //      8 ---------------------------------------------------------------------------.--------------------
(PID.TID 0000.0001) //      7 ------------------------------------------------------------------------------------------------
(PID.TID 0000.0001) //      6 ------------------------------------------------------------------------------------------------
(PID.TID 0000.0001) //      5 -----------------------------------------------------------------------------..-----------------
(PID.TID 0000.0001) //      4 -------------............................-----------------------------------...-----------------
(PID.TID 0000.0001) //      3 .............................................----------------------..----.....------------......
(PID.TID 0000.0001) //      2 ................................................................................................
(PID.TID 0000.0001) //      1 ................................................................................................
(PID.TID 0000.0001) //      0 --------.--------...--..................................................................--------
(PID.TID 0000.0001) //     -1 ----------------...........................................................----........---------
(PID.TID 0000.0001) //     -2 ................................................................................................
(PID.TID 0000.0001) // =======================================================
(PID.TID 0000.0001) // END OF FIELD                                          =
(PID.TID 0000.0001) // =======================================================
(PID.TID 0000.0001) 
(PID.TID 0000.0001)  PACKAGES_BOOT: opening data.pkg
(PID.TID 0000.0001)  OPEN_COPY_DATA_FILE: opening file data.pkg
(PID.TID 0000.0001) // =======================================================
(PID.TID 0000.0001) // Parameter file "data.pkg"
(PID.TID 0000.0001) // =======================================================
(PID.TID 0000.0001) >#
(PID.TID 0000.0001) ># ********
(PID.TID 0000.0001) ># Packages
(PID.TID 0000.0001) ># ********
(PID.TID 0000.0001) > &PACKAGES
(PID.TID 0000.0001) > useGMRedi    = .TRUE.,
(PID.TID 0000.0001) > useKPP       = .FALSE.,
(PID.TID 0000.0001) > useGrdchk    = .TRUE.,
(PID.TID 0000.0001) > useECCO      = .TRUE.,
(PID.TID 0000.0001) > &
(PID.TID 0000.0001) 
(PID.TID 0000.0001)  PACKAGES_BOOT: finished reading data.pkg
(PID.TID 0000.0001)  GM_READPARMS: opening data.gmredi
(PID.TID 0000.0001)  OPEN_COPY_DATA_FILE: opening file data.gmredi
(PID.TID 0000.0001) // =======================================================
(PID.TID 0000.0001) // Parameter file "data.gmredi"
(PID.TID 0000.0001) // =======================================================
(PID.TID 0000.0001) ># GM+Redi package parameters:
(PID.TID 0000.0001) >#     GM_Small_Number  :: epsilon used in computing the slope
(PID.TID 0000.0001) >#     GM_slopeSqCutoff :: slope^2 cut-off value
(PID.TID 0000.0001) >
(PID.TID 0000.0001) >#-from MOM :
(PID.TID 0000.0001) ># GM_background_K: 	G & Mc.W  diffusion coefficient
(PID.TID 0000.0001) ># GM_maxSlope    :	max slope of isopycnals
(PID.TID 0000.0001) ># GM_Scrit       :	transition for scaling diffusion coefficient
(PID.TID 0000.0001) ># GM_Sd          :	half width scaling for diffusion coefficient
(PID.TID 0000.0001) ># GM_taper_scheme:	slope clipping or one of the tapering schemes
(PID.TID 0000.0001) ># GM_Kmin_horiz  :	horizontal diffusion minimum value
(PID.TID 0000.0001) >
(PID.TID 0000.0001) >#-Option parameters (needs to "define" options in GMREDI_OPTIONS.h")
(PID.TID 0000.0001) ># GM_isopycK     :	isopycnal diffusion coefficient (default=GM_background_K)
(PID.TID 0000.0001) ># GM_AdvForm     :	turn on GM Advective form       (default=Skew flux form)
(PID.TID 0000.0001) >
(PID.TID 0000.0001) > &GM_PARM01
(PID.TID 0000.0001) >  GM_Small_Number  = 1.D-20,
(PID.TID 0000.0001) >  GM_slopeSqCutoff = 1.D+08,
(PID.TID 0000.0001) >  GM_AdvForm         = .FALSE.,
(PID.TID 0000.0001) >  GM_isopycK         = 1.1D+3,
(PID.TID 0000.0001) >  GM_background_K    = 0.9D+3,
(PID.TID 0000.0001) >  GM_taper_scheme    = 'dm95',
(PID.TID 0000.0001) >  GM_maxSlope        = 1.D-2,
(PID.TID 0000.0001) >  GM_Kmin_horiz      = 50.,
(PID.TID 0000.0001) >  GM_Scrit           = 4.D-3,
(PID.TID 0000.0001) >  GM_Sd              = 1.D-3,
(PID.TID 0000.0001) >#  GM_Visbeck_alpha   = 1.5D-2,
(PID.TID 0000.0001) >  GM_Visbeck_alpha   = 0.D0,
(PID.TID 0000.0001) >  GM_Visbeck_length  = 2.D+5,
(PID.TID 0000.0001) >  GM_Visbeck_depth   = 1.D+3,
(PID.TID 0000.0001) >  GM_Visbeck_maxval_K= 2.5D+3,
(PID.TID 0000.0001) > &end
(PID.TID 0000.0001) >
(PID.TID 0000.0001) >
(PID.TID 0000.0001) 
(PID.TID 0000.0001)  GM_READPARMS: finished reading data.gmredi
(PID.TID 0000.0001) Processing namelist file data.cost ...
(PID.TID 0000.0001) 
(PID.TID 0000.0001) // =======================================================
(PID.TID 0000.0001) // ECCO cost function configuration  >>> START <<<
(PID.TID 0000.0001) // =======================================================
(PID.TID 0000.0001) 
(PID.TID 0000.0001)   Multipliers for the indivdual cost function contributions:
(PID.TID 0000.0001) 
(PID.TID 0000.0001)   Net heat flux:                 0.000E+00
(PID.TID 0000.0001)   Salt flux:                     0.000E+00
(PID.TID 0000.0001)   Zonal wind stress:             0.000E+00
(PID.TID 0000.0001)   Meridional wind stress:        0.000E+00
(PID.TID 0000.0001)   Mean sea surface height:       0.000E+00
(PID.TID 0000.0001)   Sea surface height anomalies:  0.000E+00
(PID.TID 0000.0001)   Temperature (3d):              0.000E+00
(PID.TID 0000.0001)   Salinity (3d):                 0.000E+00
(PID.TID 0000.0001)   Sea surface temperature:       0.000E+00
(PID.TID 0000.0001)   CTD temperature:               0.000E+00
(PID.TID 0000.0001)   CTD salinity:                  0.000E+00
(PID.TID 0000.0001) 
(PID.TID 0000.0001) // =======================================================
(PID.TID 0000.0001) // Gradient check configuration  >>> START <<<
(PID.TID 0000.0001) // =======================================================
(PID.TID 0000.0001) 
(PID.TID 0000.0001)   eps:                              0.100E-01
(PID.TID 0000.0001)   First location:                           1
(PID.TID 0000.0001)   Last location:                            2
(PID.TID 0000.0001)   Increment:                                1
(PID.TID 0000.0001) 
(PID.TID 0000.0001) // =======================================================
(PID.TID 0000.0001) // Gradient check configuration  >>> END <<<
(PID.TID 0000.0001) // =======================================================
(PID.TID 0000.0001) 
(PID.TID 0000.0001) GMREDI_CHECK: #define GMREDI
(PID.TID 0000.0001) GM_AdvForm =  /* if FALSE => use SkewFlux Form */
(PID.TID 0000.0001)                   F
(PID.TID 0000.0001)     ;
(PID.TID 0000.0001) GM_AdvSeparate = /* Calc Bolus & Euler Adv. separately */
(PID.TID 0000.0001)                   F
(PID.TID 0000.0001)     ;
(PID.TID 0000.0001) GM_ExtraDiag =  /* Tensor Extra Diag (line 1&2) non 0 */
(PID.TID 0000.0001)                   T
(PID.TID 0000.0001)     ;
(PID.TID 0000.0001) GM_isopycK =   /* Background Isopyc. Diffusivity ( m^2/s ) */
(PID.TID 0000.0001)                 1.100000000000000E+03
(PID.TID 0000.0001)     ;
(PID.TID 0000.0001)  GM_skewflx*K =   /* Background GM_SkewFlx Diffusivity ( m^2/s ) */
(PID.TID 0000.0001)                 9.000000000000000E+02
(PID.TID 0000.0001)     ;
(PID.TID 0000.0001)  GM_advec*K =   /* Backg. GM-Advec(=Bolus) Diffusivity ( m^2/s ) */
(PID.TID 0000.0001)                 0.000000000000000E+00
(PID.TID 0000.0001)     ;
(PID.TID 0000.0001)  GM_Visbeck_alpha =   /* Visbeck alpha coeff. ( ) */
(PID.TID 0000.0001)                 0.000000000000000E+00
(PID.TID 0000.0001)     ;
(PID.TID 0000.0001)  Tapering/Cliping : dm95
(PID.TID 0000.0001)  GM_Small_Number =  /* epsilon used in slope calc */
(PID.TID 0000.0001)                 9.999999999999999E-21
(PID.TID 0000.0001)     ;
(PID.TID 0000.0001)  GM_slopeSqCutoff =  /* Slope^2 cut-off value */
(PID.TID 0000.0001)                 1.000000000000000E+08
(PID.TID 0000.0001)     ;
(PID.TID 0000.0001) CTRL_CHECK: ctrl package
(PID.TID 0000.0001) COST_CHECK: cost package
(PID.TID 0000.0001) 
(PID.TID 0000.0001) // ===================================
(PID.TID 0000.0001) // GAD parameters :
(PID.TID 0000.0001) // ===================================
(PID.TID 0000.0001) tempAdvScheme =   /* Temp. advection scheme selector */
(PID.TID 0000.0001)                       2
(PID.TID 0000.0001)     ;
(PID.TID 0000.0001) tempMultiDimAdvec =   /* use Muti-Dim Advec method for Temp */
(PID.TID 0000.0001)                   F
(PID.TID 0000.0001)     ;
(PID.TID 0000.0001) tempAdamsBashforth =   /* use Adams-Bashforth time-stepping for Temp */
(PID.TID 0000.0001)                   T
(PID.TID 0000.0001)     ;
(PID.TID 0000.0001) saltAdvScheme =   /* Salt. advection scheme selector */
(PID.TID 0000.0001)                       2
(PID.TID 0000.0001)     ;
(PID.TID 0000.0001) saltMultiDimAdvec =   /* use Muti-Dim Advec method for Salt */
(PID.TID 0000.0001)                   F
(PID.TID 0000.0001)     ;
(PID.TID 0000.0001) saltAdamsBashforth =   /* use Adams-Bashforth time-stepping for Salt */
(PID.TID 0000.0001)                   T
(PID.TID 0000.0001)     ;
(PID.TID 0000.0001) // ===================================
(PID.TID 0000.0001) 
(PID.TID 0000.0001)  ctrl_init: Initializing temperature and salinity
(PID.TID 0000.0001)                    part of the control vector.
(PID.TID 0000.0001)                    The initial surface fluxes are set to zero.
(PID.TID 0000.0001) 
 ph-wet 1: nvarlength =  96912
 ph-wet 2: surface wet C =  2315
 ph-wet 3: surface wet W =  2206
 ph-wet 4: surface wet S =  2149
 ph-wet 4a:surface wet V =  0
 ph-wet 5: 3D wet points =  29309
 ph-wet 6: no recs for i =  1 1
 ph-wet 6: no recs for i =  2 1
 ph-wet 6: no recs for i =  3 1
 ph-wet 6: no recs for i =  4 1
 ph-wet 6: no recs for i =  5 1
 ph-wet 6: no recs for i =  6 1
 ph-wet 6: no recs for i =  7 0
 ph-wet 6: no recs for i =  8 0
 ph-wet 6: no recs for i =  9 0
 ph-wet 6: no recs for i =  10 0
 ph-wet 6: no recs for i =  11 0
 ph-wet 6: no recs for i =  12 0
 ph-wet 6: no recs for i =  13 0
 ph-wet 6: no recs for i =  14 0
 ph-wet 6: no recs for i =  15 1
 ph-wet 6: no recs for i =  16 0
 ph-wet 6: no recs for i =  17 0
 ph-wet 6: no recs for i =  18 0
 ph-wet 6: no recs for i =  19 0
 ph-wet 6: no recs for i =  20 0
 ph-wet 6: no recs for i =  21 0
 ph-wet 6: no recs for i =  22 0
 ph-wet 6: no recs for i =  23 0
 ph-wet 6: no recs for i =  24 0
 ph-wet 6: no recs for i =  25 0
 ph-wet 6: no recs for i =  26 0
 ph-wet 6: no recs for i =  27 0
 ph-wet 6: no recs for i =  28 0
 ph-wet 6: no recs for i =  29 0
 ph-wet 6: no recs for i =  30 0
 ph-wet 7:  67603
 ph-wet 8:  58618
 ph-wet 13: global nvarlength vor k= 16 96912
 ph-wet 14a: global nWet... k= 1 2315
 ph-wet 14b: global nWet... k= 1 2149
 ph-wet 14c: global nWet... k= 1 2206
 ph-wet 14d: global nWet... k= 1 0
 ph-wet 14a: global nWet... k= 2 2315
 ph-wet 14b: global nWet... k= 2 2149
 ph-wet 14c: global nWet... k= 2 2206
 ph-wet 14d: global nWet... k= 2 0
 ph-wet 14a: global nWet... k= 3 2254
 ph-wet 14b: global nWet... k= 3 2102
 ph-wet 14c: global nWet... k= 3 2146
 ph-wet 14d: global nWet... k= 3 0
 ph-wet 14a: global nWet... k= 4 2215
 ph-wet 14b: global nWet... k= 4 2058
 ph-wet 14c: global nWet... k= 4 2104
 ph-wet 14d: global nWet... k= 4 0
 ph-wet 14a: global nWet... k= 5 2178
 ph-wet 14b: global nWet... k= 5 2027
 ph-wet 14c: global nWet... k= 5 2070
 ph-wet 14d: global nWet... k= 5 0
 ph-wet 14a: global nWet... k= 6 2142
 ph-wet 14b: global nWet... k= 6 1987
 ph-wet 14c: global nWet... k= 6 2029
 ph-wet 14d: global nWet... k= 6 0
 ph-wet 14a: global nWet... k= 7 2114
 ph-wet 14b: global nWet... k= 7 1959
 ph-wet 14c: global nWet... k= 7 2004
 ph-wet 14d: global nWet... k= 7 0
 ph-wet 14a: global nWet... k= 8 2076
 ph-wet 14b: global nWet... k= 8 1918
 ph-wet 14c: global nWet... k= 8 1959
 ph-wet 14d: global nWet... k= 8 0
 ph-wet 14a: global nWet... k= 9 2048
 ph-wet 14b: global nWet... k= 9 1887
 ph-wet 14c: global nWet... k= 9 1925
 ph-wet 14d: global nWet... k= 9 0
 ph-wet 14a: global nWet... k= 10 1999
 ph-wet 14b: global nWet... k= 10 1831
 ph-wet 14c: global nWet... k= 10 1869
 ph-wet 14d: global nWet... k= 10 0
 ph-wet 14a: global nWet... k= 11 1948
 ph-wet 14b: global nWet... k= 11 1771
 ph-wet 14c: global nWet... k= 11 1808
 ph-wet 14d: global nWet... k= 11 0
 ph-wet 14a: global nWet... k= 12 1850
 ph-wet 14b: global nWet... k= 12 1653
 ph-wet 14c: global nWet... k= 12 1705
 ph-wet 14d: global nWet... k= 12 0
 ph-wet 14a: global nWet... k= 13 1655
 ph-wet 14b: global nWet... k= 13 1404
 ph-wet 14c: global nWet... k= 13 1458
 ph-wet 14d: global nWet... k= 13 0
 ph-wet 14a: global nWet... k= 14 1372
 ph-wet 14b: global nWet... k= 14 1118
 ph-wet 14c: global nWet... k= 14 1164
 ph-wet 14d: global nWet... k= 14 0
 ph-wet 14a: global nWet... k= 15 828
 ph-wet 14b: global nWet... k= 15 623
 ph-wet 14c: global nWet... k= 15 671
 ph-wet 14d: global nWet... k= 15 0
 ctrl_init: no. of control variables:  7
 ctrl_init: control vector length:     96912
(PID.TID 0000.0001) // CG2D normalisation factor =          0.6568267742571170272718184E-04
(PID.TID 0000.0001) 
(PID.TID 0000.0001) CONFIG_CHECK: OK
(PID.TID 0000.0001) // =======================================================
(PID.TID 0000.0001) // Model configuration
(PID.TID 0000.0001) // =======================================================
(PID.TID 0000.0001) //
(PID.TID 0000.0001) // "Physical" paramters ( PARM01 in namelist )
(PID.TID 0000.0001) //
(PID.TID 0000.0001) buoyancyRelation = OCEANIC
(PID.TID 0000.0001) tRef =   /* Reference temperature profile ( oC or oK ) */
(PID.TID 0000.0001)    15 @  2.000000000000000E+01              /* K =  1: 15 */
(PID.TID 0000.0001)     ;
(PID.TID 0000.0001) sRef =   /* Reference salinity profile ( ppt ) */
(PID.TID 0000.0001)    15 @  3.500000000000000E+01              /* K =  1: 15 */
(PID.TID 0000.0001)     ;
(PID.TID 0000.0001) viscAh =   /* Lateral eddy viscosity ( m^2/s ) */
(PID.TID 0000.0001)                 5.000000000000000E+05
(PID.TID 0000.0001)     ;
(PID.TID 0000.0001) viscAh =   /* Lateral biharmonic viscosity ( m^4/s ) */
(PID.TID 0000.0001)                 0.000000000000000E+00
(PID.TID 0000.0001)     ;
(PID.TID 0000.0001) no_slip_sides =  /* Viscous BCs: No-slip sides */
(PID.TID 0000.0001)                   T
(PID.TID 0000.0001)     ;
(PID.TID 0000.0001) viscAr =   /* Vertical eddy viscosity ( units of r^2/s ) */
(PID.TID 0000.0001)                 1.000000000000000E-03
(PID.TID 0000.0001)     ;
(PID.TID 0000.0001) diffKhT =   /* Laplacian diffusion of heat laterally ( m^2/s ) */
(PID.TID 0000.0001)                 0.000000000000000E+00
(PID.TID 0000.0001)     ;
(PID.TID 0000.0001) diffK4T =   /* Bihaarmonic diffusion of heat laterally ( m^4/s ) */
(PID.TID 0000.0001)                 0.000000000000000E+00
(PID.TID 0000.0001)     ;
(PID.TID 0000.0001) diffKzT =   /* Laplacian diffusion of heat vertically ( m^2/s ) */
(PID.TID 0000.0001)                 1.234567000000000E+05
(PID.TID 0000.0001)     ;
(PID.TID 0000.0001) diffKrT =   /* Laplacian diffusion of heat vertically ( m^2/s ) */
(PID.TID 0000.0001)                 3.000000000000000E-05
(PID.TID 0000.0001)     ;
(PID.TID 0000.0001) diffKhS =   /* Laplacian diffusion of salt laterally ( m^2/s ) */
(PID.TID 0000.0001)                 0.000000000000000E+00
(PID.TID 0000.0001)     ;
(PID.TID 0000.0001) diffK4S =   /* Bihaarmonic diffusion of salt laterally ( m^4/s ) */
(PID.TID 0000.0001)                 0.000000000000000E+00
(PID.TID 0000.0001)     ;
(PID.TID 0000.0001) diffKzS =   /* Laplacian diffusion of salt vertically ( m^2/s ) */
(PID.TID 0000.0001)                 1.234567000000000E+05
(PID.TID 0000.0001)     ;
(PID.TID 0000.0001) diffKrS =   /* Laplacian diffusion of salt vertically ( m^2/s ) */
(PID.TID 0000.0001)                 3.000000000000000E-05
(PID.TID 0000.0001)     ;
(PID.TID 0000.0001)  Equation of State : eosType = JMD95Z
(PID.TID 0000.0001) tAlpha =   /* Linear EOS thermal expansion coefficient ( 1/degree ) */
(PID.TID 0000.0001)                 1.234567000000000E+05
(PID.TID 0000.0001)     ;
(PID.TID 0000.0001) sBeta =   /* Linear EOS haline contraction coefficient ( 1/ppt ) */
(PID.TID 0000.0001)                 1.234567000000000E+05
(PID.TID 0000.0001)     ;
(PID.TID 0000.0001) rhonil =   /* Reference density ( kg/m^3 ) */
(PID.TID 0000.0001)                 1.035000000000000E+03
(PID.TID 0000.0001)     ;
(PID.TID 0000.0001) rhoConst =   /* Reference density ( kg/m^3 ) */
(PID.TID 0000.0001)                 1.035000000000000E+03
(PID.TID 0000.0001)     ;
(PID.TID 0000.0001) rhoConstFresh =   /* Reference density ( kg/m^3 ) */
(PID.TID 0000.0001)                 9.998000000000000E+02
(PID.TID 0000.0001)     ;
(PID.TID 0000.0001) gravity =   /* Gravitational acceleration ( m/s^2 ) */
(PID.TID 0000.0001)                 9.810000000000000E+00
(PID.TID 0000.0001)     ;
(PID.TID 0000.0001) gBaro =   /* Barotropic gravity ( m/s^2 ) */
(PID.TID 0000.0001)                 9.810000000000000E+00
(PID.TID 0000.0001)     ;
(PID.TID 0000.0001) rotationPeriod =   /* Rotation Period ( s ) */
(PID.TID 0000.0001)                 8.640000000000000E+04
(PID.TID 0000.0001)     ;
(PID.TID 0000.0001) omega =   /* Angular velocity ( rad/s ) */
(PID.TID 0000.0001)                 7.272205216643040E-05
(PID.TID 0000.0001)     ;
(PID.TID 0000.0001) f0 =   /* Reference coriolis parameter ( 1/s ) */
(PID.TID 0000.0001)                 1.000000000000000E-04
(PID.TID 0000.0001)     ;
(PID.TID 0000.0001) beta =   /* Beta ( 1/(m.s) ) */
(PID.TID 0000.0001)                 9.999999999999999E-12
(PID.TID 0000.0001)     ;
(PID.TID 0000.0001) freeSurfFac =   /* Implicit free surface factor */
(PID.TID 0000.0001)                 1.000000000000000E+00
(PID.TID 0000.0001)     ;
(PID.TID 0000.0001) implicitFreeSurface =   /* Implicit free surface on/off flag */
(PID.TID 0000.0001)                   T
(PID.TID 0000.0001)     ;
(PID.TID 0000.0001) rigidLid =   /* Rigid lid on/off flag */
(PID.TID 0000.0001)                   F
(PID.TID 0000.0001)     ;
(PID.TID 0000.0001) implicSurfPress =   /* Surface Pressure implicit factor (0-1)*/
(PID.TID 0000.0001)                 1.000000000000000E+00
(PID.TID 0000.0001)     ;
(PID.TID 0000.0001) implicDiv2Dflow =   /* Barot. Flow Div. implicit factor (0-1)*/
(PID.TID 0000.0001)                 1.000000000000000E+00
(PID.TID 0000.0001)     ;
(PID.TID 0000.0001) exactConserv =   /* Exact Volume Conservation on/off flag*/
(PID.TID 0000.0001)                   T
(PID.TID 0000.0001)     ;
(PID.TID 0000.0001) uniformLin_PhiSurf =   /* use uniform Bo_surf on/off flag*/
(PID.TID 0000.0001)                   T
(PID.TID 0000.0001)     ;
(PID.TID 0000.0001) nonlinFreeSurf =   /* Non-linear Free Surf. options (-1,0,1,2,3)*/
(PID.TID 0000.0001)                       0
(PID.TID 0000.0001)     ;
(PID.TID 0000.0001)      -1,0= Off ; 1,2,3= On, 2=+rescale gU,gV, 3=+update cg2d solv.
(PID.TID 0000.0001) hFacInf =   /* lower threshold for hFac (nonlinFreeSurf only)*/
(PID.TID 0000.0001)                 2.000000000000000E-01
(PID.TID 0000.0001)     ;
(PID.TID 0000.0001) hFacSup =   /* upper threshold for hFac (nonlinFreeSurf only)*/
(PID.TID 0000.0001)                 2.000000000000000E+00
(PID.TID 0000.0001)     ;
(PID.TID 0000.0001) select_rStar =   /* r* Coordinate options (not yet implemented)*/
(PID.TID 0000.0001)                       0
(PID.TID 0000.0001)     ;
(PID.TID 0000.0001) useRealFreshWaterFlux =   /* Real Fresh Water Flux on/off flag*/
(PID.TID 0000.0001)                   T
(PID.TID 0000.0001)     ;
(PID.TID 0000.0001) convertFW2Salt = /* convert F.W. Flux to Salt Flux (-1=use local S)(ppt)*/
(PID.TID 0000.0001)                -1.000000000000000E+00
(PID.TID 0000.0001)     ;
(PID.TID 0000.0001) multiDimAdvection =   /* enable/disable Multi-Dim Advection */
(PID.TID 0000.0001)                   T
(PID.TID 0000.0001)     ;
(PID.TID 0000.0001) staggerTimeStep =   /* Stagger time stepping on/off flag */
(PID.TID 0000.0001)                   F
(PID.TID 0000.0001)     ;
(PID.TID 0000.0001) momStepping =  /* Momentum equation on/off flag */
(PID.TID 0000.0001)                   T
(PID.TID 0000.0001)     ;
(PID.TID 0000.0001) momAdvection =  /* Momentum advection on/off flag */
(PID.TID 0000.0001)                   T
(PID.TID 0000.0001)     ;
(PID.TID 0000.0001) momViscosity =  /* Momentum viscosity on/off flag */
(PID.TID 0000.0001)                   T
(PID.TID 0000.0001)     ;
(PID.TID 0000.0001) useCoriolis =  /* Coriolis on/off flag */
(PID.TID 0000.0001)                   T
(PID.TID 0000.0001)     ;
(PID.TID 0000.0001) momForcing =  /* Momentum forcing on/off flag */
(PID.TID 0000.0001)                   T
(PID.TID 0000.0001)     ;
(PID.TID 0000.0001) momPressureForcing =  /* Momentum pressure term on/off flag */
(PID.TID 0000.0001)                   T
(PID.TID 0000.0001)     ;
(PID.TID 0000.0001) tempStepping =  /* Temperature equation on/off flag */
(PID.TID 0000.0001)                   T
(PID.TID 0000.0001)     ;
(PID.TID 0000.0001) tempAdvection=  /* Temperature advection on/off flag */
(PID.TID 0000.0001)                   T
(PID.TID 0000.0001)     ;
(PID.TID 0000.0001) tempForcing  =  /* Temperature forcing on/off flag */
(PID.TID 0000.0001)                   T
(PID.TID 0000.0001)     ;
(PID.TID 0000.0001) saltStepping =  /* Salinity equation on/off flag */
(PID.TID 0000.0001)                   T
(PID.TID 0000.0001)     ;
(PID.TID 0000.0001) saltAdvection=  /* Salinity advection on/off flag */
(PID.TID 0000.0001)                   T
(PID.TID 0000.0001)     ;
(PID.TID 0000.0001) saltForcing  =  /* Salinity forcing on/off flag */
(PID.TID 0000.0001)                   T
(PID.TID 0000.0001)     ;
(PID.TID 0000.0001) nonHydrostatic =  /* Non-Hydrostatic on/off flag */
(PID.TID 0000.0001)                   F
(PID.TID 0000.0001)     ;
(PID.TID 0000.0001) useCDscheme =  /* CD scheme on/off flag */
(PID.TID 0000.0001)                   F
(PID.TID 0000.0001)     ;
(PID.TID 0000.0001) useJamartWetPoints= /* Coriolis WetPoints method flag */
(PID.TID 0000.0001)                   F
(PID.TID 0000.0001)     ;
(PID.TID 0000.0001) //
(PID.TID 0000.0001) // Elliptic solver(s) paramters ( PARM02 in namelist )
(PID.TID 0000.0001) //
(PID.TID 0000.0001) cg2dMaxIters =   /* Upper limit on 2d con. grad iterations  */
(PID.TID 0000.0001)                     500
(PID.TID 0000.0001)     ;
(PID.TID 0000.0001) cg2dChkResFreq =   /* 2d con. grad convergence test frequency */
(PID.TID 0000.0001)                       1
(PID.TID 0000.0001)     ;
(PID.TID 0000.0001) cg2dTargetResidual =   /* 2d con. grad target residual  */
(PID.TID 0000.0001)                 1.000000000000000E-13
(PID.TID 0000.0001)     ;
(PID.TID 0000.0001) //
(PID.TID 0000.0001) // Time stepping paramters ( PARM03 in namelist )
(PID.TID 0000.0001) //
(PID.TID 0000.0001) nIter0 =   /* Base timestep number  */
(PID.TID 0000.0001)                       0
(PID.TID 0000.0001)     ;
(PID.TID 0000.0001) nTimeSteps =   /* Number of timesteps */
(PID.TID 0000.0001)                     120
(PID.TID 0000.0001)     ;
(PID.TID 0000.0001) deltatTmom =   /* Momentum equation timestep ( s ) */
(PID.TID 0000.0001)                 1.200000000000000E+03
(PID.TID 0000.0001)     ;
(PID.TID 0000.0001) deltaTfreesurf =   /* FreeSurface equation timestep ( s ) */
(PID.TID 0000.0001)                 1.200000000000000E+03
(PID.TID 0000.0001)     ;
(PID.TID 0000.0001) deltatTtracer =   /* Tracer equation timestep ( s ) */
(PID.TID 0000.0001)                 4.320000000000000E+04
(PID.TID 0000.0001)     ;
(PID.TID 0000.0001) deltatTClock  =   /* Model clock timestep ( s ) */
(PID.TID 0000.0001)                 4.320000000000000E+04
(PID.TID 0000.0001)     ;
(PID.TID 0000.0001) cAdjFreq =   /* Convective adjustment interval ( s ) */
(PID.TID 0000.0001)                 0.000000000000000E+00
(PID.TID 0000.0001)     ;
(PID.TID 0000.0001) forcing_In_AB =   /* put T,S Forcing in Adams-Bash. stepping */
(PID.TID 0000.0001)                   T
(PID.TID 0000.0001)     ;
(PID.TID 0000.0001) abeps =   /* Adams-Bashforth stabilizing weight */
(PID.TID 0000.0001)                 1.000000000000000E-01
(PID.TID 0000.0001)     ;
(PID.TID 0000.0001) startTime =   /* Run start time ( s ). */
(PID.TID 0000.0001)                 0.000000000000000E+00
(PID.TID 0000.0001)     ;
(PID.TID 0000.0001) endTime =   /* Integration ending time ( s ). */
(PID.TID 0000.0001)                 5.184000000000000E+06
(PID.TID 0000.0001)     ;
(PID.TID 0000.0001) pChkPtFreq =   /* Permanent restart/checkpoint file interval ( s ). */
(PID.TID 0000.0001)                 3.110400000000000E+08
(PID.TID 0000.0001)     ;
(PID.TID 0000.0001) chkPtFreq =   /* Rolling restart/checkpoint file interval ( s ). */
(PID.TID 0000.0001)                 0.000000000000000E+00
(PID.TID 0000.0001)     ;
(PID.TID 0000.0001) dumpFreq =   /* Model state write out interval ( s ). */
(PID.TID 0000.0001)                 8.640000000000000E+05
(PID.TID 0000.0001)     ;
(PID.TID 0000.0001) externForcingPeriod =   /* forcing period (s) */
(PID.TID 0000.0001)                 2.592000000000000E+06
(PID.TID 0000.0001)     ;
(PID.TID 0000.0001) externForcingCycle =   /* period of the cyle (s). */
(PID.TID 0000.0001)                 3.110400000000000E+07
(PID.TID 0000.0001)     ;
(PID.TID 0000.0001) tauThetaClimRelax =   /* relaxation time scale (s) */
(PID.TID 0000.0001)                 5.184000000000000E+06
(PID.TID 0000.0001)     ;
(PID.TID 0000.0001) tauSaltClimRelax =   /* relaxation time scale (s) */
(PID.TID 0000.0001)                 1.555200000000000E+07
(PID.TID 0000.0001)     ;
(PID.TID 0000.0001) latBandClimRelax =   /* max. Lat. where relaxation */
(PID.TID 0000.0001)                 1.800000000000000E+02
(PID.TID 0000.0001)     ;
(PID.TID 0000.0001) //
(PID.TID 0000.0001) // Gridding paramters ( PARM04 in namelist )
(PID.TID 0000.0001) //
(PID.TID 0000.0001) usingCartesianGrid =   /* Cartesian coordinates flag ( True / False ) */
(PID.TID 0000.0001)                   F
(PID.TID 0000.0001)     ;
(PID.TID 0000.0001) usingSphericalPolarGrid =   /* Spherical coordinates flag ( True / False ) */
(PID.TID 0000.0001)                   T
(PID.TID 0000.0001)     ;
(PID.TID 0000.0001) groundAtK1 =   /* Lower Boundary (ground) at the surface(k=1) ( T / F ) */
(PID.TID 0000.0001)                   F
(PID.TID 0000.0001)     ;
(PID.TID 0000.0001) Ro_SeaLevel =   /* r(1) ( units of r ) */
(PID.TID 0000.0001)                 0.000000000000000E+00
(PID.TID 0000.0001)     ;
(PID.TID 0000.0001) rkFac =   /* minus Vertical index orientation  */
(PID.TID 0000.0001)                 1.000000000000000E+00
(PID.TID 0000.0001)     ;
(PID.TID 0000.0001) horiVertRatio =   /* Ratio on units : Horiz - Vertical */
(PID.TID 0000.0001)                 1.000000000000000E+00
(PID.TID 0000.0001)     ;
(PID.TID 0000.0001) drC =   /* C spacing ( units of r ) */
(PID.TID 0000.0001)                 2.500000000000000E+01,      /* K =  1 */
(PID.TID 0000.0001)                 6.000000000000000E+01,      /* K =  2 */
(PID.TID 0000.0001)                 8.500000000000000E+01,      /* K =  3 */
(PID.TID 0000.0001)                 1.200000000000000E+02,      /* K =  4 */
(PID.TID 0000.0001)                 1.650000000000000E+02,      /* K =  5 */
(PID.TID 0000.0001)                 2.150000000000000E+02,      /* K =  6 */
(PID.TID 0000.0001)                 2.650000000000000E+02,      /* K =  7 */
(PID.TID 0000.0001)                 3.150000000000000E+02,      /* K =  8 */
(PID.TID 0000.0001)                 3.650000000000000E+02,      /* K =  9 */
(PID.TID 0000.0001)                 4.150000000000000E+02,      /* K = 10 */
(PID.TID 0000.0001)                 4.650000000000000E+02,      /* K = 11 */
(PID.TID 0000.0001)                 5.150000000000000E+02,      /* K = 12 */
(PID.TID 0000.0001)                 5.650000000000000E+02,      /* K = 13 */
(PID.TID 0000.0001)                 6.150000000000000E+02,      /* K = 14 */
(PID.TID 0000.0001)                 6.650000000000000E+02       /* K = 15 */
(PID.TID 0000.0001)     ;
(PID.TID 0000.0001) drF =   /* W spacing ( units of r ) */
(PID.TID 0000.0001)                 5.000000000000000E+01,      /* K =  1 */
(PID.TID 0000.0001)                 7.000000000000000E+01,      /* K =  2 */
(PID.TID 0000.0001)                 1.000000000000000E+02,      /* K =  3 */
(PID.TID 0000.0001)                 1.400000000000000E+02,      /* K =  4 */
(PID.TID 0000.0001)                 1.900000000000000E+02,      /* K =  5 */
(PID.TID 0000.0001)                 2.400000000000000E+02,      /* K =  6 */
(PID.TID 0000.0001)                 2.900000000000000E+02,      /* K =  7 */
(PID.TID 0000.0001)                 3.400000000000000E+02,      /* K =  8 */
(PID.TID 0000.0001)                 3.900000000000000E+02,      /* K =  9 */
(PID.TID 0000.0001)                 4.400000000000000E+02,      /* K = 10 */
(PID.TID 0000.0001)                 4.900000000000000E+02,      /* K = 11 */
(PID.TID 0000.0001)                 5.400000000000000E+02,      /* K = 12 */
(PID.TID 0000.0001)                 5.900000000000000E+02,      /* K = 13 */
(PID.TID 0000.0001)                 6.400000000000000E+02,      /* K = 14 */
(PID.TID 0000.0001)                 6.900000000000000E+02       /* K = 15 */
(PID.TID 0000.0001)     ;
(PID.TID 0000.0001) delX =   /* U spacing ( m - cartesian, degrees - spherical ) */
(PID.TID 0000.0001)    90 @  4.000000000000000E+00              /* I =  1: 90 */
(PID.TID 0000.0001)     ;
(PID.TID 0000.0001) delY =   /* V spacing ( m - cartesian, degrees - spherical ) */
(PID.TID 0000.0001)    40 @  4.000000000000000E+00              /* J =  1: 40 */
(PID.TID 0000.0001)     ;
(PID.TID 0000.0001) phiMin =    /* South edge (ignored - cartesian, degrees - spherical ) */
(PID.TID 0000.0001)                -8.000000000000000E+01
(PID.TID 0000.0001)     ;
(PID.TID 0000.0001) thetaMin =    /* West edge ( ignored - cartesian, degrees - spherical ) */
(PID.TID 0000.0001)                 0.000000000000000E+00
(PID.TID 0000.0001)     ;
(PID.TID 0000.0001) rSphere =    /* Radius ( ignored - cartesian, m - spherical ) */
(PID.TID 0000.0001)                 6.370000000000000E+06
(PID.TID 0000.0001)     ;
(PID.TID 0000.0001) xcoord =   /* P-point X coord ( m - cartesian, degrees - spherical ) */
(PID.TID 0000.0001)                 2.000000000000000E+00,      /* I =  1 */
(PID.TID 0000.0001)                 6.000000000000000E+00,      /* I =  2 */
(PID.TID 0000.0001)                 1.000000000000000E+01,      /* I =  3 */
(PID.TID 0000.0001)                 1.400000000000000E+01,      /* I =  4 */
(PID.TID 0000.0001)                 1.800000000000000E+01,      /* I =  5 */
(PID.TID 0000.0001)                 2.200000000000000E+01,      /* I =  6 */
(PID.TID 0000.0001)                 2.600000000000000E+01,      /* I =  7 */
(PID.TID 0000.0001)                 3.000000000000000E+01,      /* I =  8 */
(PID.TID 0000.0001)                 3.400000000000000E+01,      /* I =  9 */
(PID.TID 0000.0001)                 3.800000000000000E+01,      /* I = 10 */
(PID.TID 0000.0001)                 4.200000000000000E+01,      /* I = 11 */
(PID.TID 0000.0001)                 4.600000000000000E+01,      /* I = 12 */
(PID.TID 0000.0001)                 5.000000000000000E+01,      /* I = 13 */
(PID.TID 0000.0001)                 5.400000000000000E+01,      /* I = 14 */
(PID.TID 0000.0001)                 5.800000000000000E+01,      /* I = 15 */
(PID.TID 0000.0001)                 6.200000000000000E+01,      /* I = 16 */
(PID.TID 0000.0001)                 6.600000000000000E+01,      /* I = 17 */
(PID.TID 0000.0001)                 7.000000000000000E+01,      /* I = 18 */
(PID.TID 0000.0001)                 7.400000000000000E+01,      /* I = 19 */
(PID.TID 0000.0001)                 7.800000000000000E+01,      /* I = 20 */
(PID.TID 0000.0001)                 8.200000000000000E+01,      /* I = 21 */
(PID.TID 0000.0001)                 8.600000000000000E+01,      /* I = 22 */
(PID.TID 0000.0001)                 9.000000000000000E+01,      /* I = 23 */
(PID.TID 0000.0001)                 9.400000000000000E+01,      /* I = 24 */
(PID.TID 0000.0001)                 9.800000000000000E+01,      /* I = 25 */
(PID.TID 0000.0001)                 1.020000000000000E+02,      /* I = 26 */
(PID.TID 0000.0001)                 1.060000000000000E+02,      /* I = 27 */
(PID.TID 0000.0001)                 1.100000000000000E+02,      /* I = 28 */
(PID.TID 0000.0001)                 1.140000000000000E+02,      /* I = 29 */
(PID.TID 0000.0001)                 1.180000000000000E+02,      /* I = 30 */
(PID.TID 0000.0001)                 1.220000000000000E+02,      /* I = 31 */
(PID.TID 0000.0001)                 1.260000000000000E+02,      /* I = 32 */
(PID.TID 0000.0001)                 1.300000000000000E+02,      /* I = 33 */
(PID.TID 0000.0001)                 1.340000000000000E+02,      /* I = 34 */
(PID.TID 0000.0001)                 1.380000000000000E+02,      /* I = 35 */
(PID.TID 0000.0001)                 1.420000000000000E+02,      /* I = 36 */
(PID.TID 0000.0001)                 1.460000000000000E+02,      /* I = 37 */
(PID.TID 0000.0001)                 1.500000000000000E+02,      /* I = 38 */
(PID.TID 0000.0001)                 1.540000000000000E+02,      /* I = 39 */
(PID.TID 0000.0001)                 1.580000000000000E+02,      /* I = 40 */
(PID.TID 0000.0001)                 1.620000000000000E+02,      /* I = 41 */
(PID.TID 0000.0001)                 1.660000000000000E+02,      /* I = 42 */
(PID.TID 0000.0001)                 1.700000000000000E+02,      /* I = 43 */
(PID.TID 0000.0001)                 1.740000000000000E+02,      /* I = 44 */
(PID.TID 0000.0001)                 1.780000000000000E+02,      /* I = 45 */
(PID.TID 0000.0001)                 1.820000000000000E+02,      /* I = 46 */
(PID.TID 0000.0001)                 1.860000000000000E+02,      /* I = 47 */
(PID.TID 0000.0001)                 1.900000000000000E+02,      /* I = 48 */
(PID.TID 0000.0001)                 1.940000000000000E+02,      /* I = 49 */
(PID.TID 0000.0001)                 1.980000000000000E+02,      /* I = 50 */
(PID.TID 0000.0001)                 2.020000000000000E+02,      /* I = 51 */
(PID.TID 0000.0001)                 2.060000000000000E+02,      /* I = 52 */
(PID.TID 0000.0001)                 2.100000000000000E+02,      /* I = 53 */
(PID.TID 0000.0001)                 2.140000000000000E+02,      /* I = 54 */
(PID.TID 0000.0001)                 2.180000000000000E+02,      /* I = 55 */
(PID.TID 0000.0001)                 2.220000000000000E+02,      /* I = 56 */
(PID.TID 0000.0001)                 2.260000000000000E+02,      /* I = 57 */
(PID.TID 0000.0001)                 2.300000000000000E+02,      /* I = 58 */
(PID.TID 0000.0001)                 2.340000000000000E+02,      /* I = 59 */
(PID.TID 0000.0001)                 2.380000000000000E+02,      /* I = 60 */
(PID.TID 0000.0001)                 2.420000000000000E+02,      /* I = 61 */
(PID.TID 0000.0001)                 2.460000000000000E+02,      /* I = 62 */
(PID.TID 0000.0001)                 2.500000000000000E+02,      /* I = 63 */
(PID.TID 0000.0001)                 2.540000000000000E+02,      /* I = 64 */
(PID.TID 0000.0001)                 2.580000000000000E+02,      /* I = 65 */
(PID.TID 0000.0001)                 2.620000000000000E+02,      /* I = 66 */
(PID.TID 0000.0001)                 2.660000000000000E+02,      /* I = 67 */
(PID.TID 0000.0001)                 2.700000000000000E+02,      /* I = 68 */
(PID.TID 0000.0001)                 2.740000000000000E+02,      /* I = 69 */
(PID.TID 0000.0001)                 2.780000000000000E+02,      /* I = 70 */
(PID.TID 0000.0001)                 2.820000000000000E+02,      /* I = 71 */
(PID.TID 0000.0001)                 2.860000000000000E+02,      /* I = 72 */
(PID.TID 0000.0001)                 2.900000000000000E+02,      /* I = 73 */
(PID.TID 0000.0001)                 2.940000000000000E+02,      /* I = 74 */
(PID.TID 0000.0001)                 2.980000000000000E+02,      /* I = 75 */
(PID.TID 0000.0001)                 3.020000000000000E+02,      /* I = 76 */
(PID.TID 0000.0001)                 3.060000000000000E+02,      /* I = 77 */
(PID.TID 0000.0001)                 3.100000000000000E+02,      /* I = 78 */
(PID.TID 0000.0001)                 3.140000000000000E+02,      /* I = 79 */
(PID.TID 0000.0001)                 3.180000000000000E+02,      /* I = 80 */
[...]
time,fu0,fu1,fu =   4.4496E+06 -1.4435E-02 -2.7199E-02 -1.7200E-02  2.1667E-01  7.8333E-01
 cg2d: Sum(rhs),rhsMax =  -2.08687234160010E-14  7.75129671180497E+00
(PID.TID 0000.0001)                    cg2d_init_res =    3.09309670612052E-01
(PID.TID 0000.0001)                       cg2d_iters =    24
(PID.TID 0000.0001)                         cg2d_res =    5.73796459355409E-14
time,SST,SSS,fu,fv,Q,E-P,i0,i1,a,b =   4.4928E+06 -4.5067E-01  3.4458E+01 -1.7413E-02 -1.3655E-02  2.3463E+02  0.0000E+00     2     3  2.3333E-01  7.6667E-01
time,fu0,fu1,fu =   4.4928E+06 -1.4435E-02 -2.7199E-02 -1.7413E-02  2.3333E-01  7.6667E-01
 cg2d: Sum(rhs),rhsMax =  -1.87488913283573E-14  7.70314358558512E+00
(PID.TID 0000.0001)                    cg2d_init_res =    3.11730038435492E-01
(PID.TID 0000.0001)                       cg2d_iters =    24
(PID.TID 0000.0001)                         cg2d_res =    5.17231196412069E-14
time,SST,SSS,fu,fv,Q,E-P,i0,i1,a,b =   4.5360E+06 -4.4487E-01  3.4461E+01 -1.7626E-02 -1.3371E-02  2.3421E+02  0.0000E+00     2     3  2.5000E-01  7.5000E-01
time,fu0,fu1,fu =   4.5360E+06 -1.4435E-02 -2.7199E-02 -1.7626E-02  2.5000E-01  7.5000E-01
 cg2d: Sum(rhs),rhsMax =  -2.14424832056803E-14  7.60808546980970E+00
(PID.TID 0000.0001)                    cg2d_init_res =    3.18619552294546E-01
(PID.TID 0000.0001)                       cg2d_iters =    24
(PID.TID 0000.0001)                         cg2d_res =    6.31489422332425E-14
time,SST,SSS,fu,fv,Q,E-P,i0,i1,a,b =   4.5792E+06 -4.3907E-01  3.4463E+01 -1.7838E-02 -1.3087E-02  2.3379E+02  0.0000E+00     2     3  2.6667E-01  7.3333E-01
time,fu0,fu1,fu =   4.5792E+06 -1.4435E-02 -2.7199E-02 -1.7838E-02  2.6667E-01  7.3333E-01
 cg2d: Sum(rhs),rhsMax =  -1.95937016611580E-14  7.47188586664529E+00
(PID.TID 0000.0001)                    cg2d_init_res =    3.29044753111302E-01
(PID.TID 0000.0001)                       cg2d_iters =    24
(PID.TID 0000.0001)                         cg2d_res =    6.55986627679193E-14
time,SST,SSS,fu,fv,Q,E-P,i0,i1,a,b =   4.6224E+06 -4.3327E-01  3.4466E+01 -1.8051E-02 -1.2803E-02  2.3337E+02  0.0000E+00     2     3  2.8333E-01  7.1667E-01
time,fu0,fu1,fu =   4.6224E+06 -1.4435E-02 -2.7199E-02 -1.8051E-02  2.8333E-01  7.1667E-01
 cg2d: Sum(rhs),rhsMax =  -2.06657607693117E-14  7.30123995522357E+00
(PID.TID 0000.0001)                    cg2d_init_res =    3.41942979462409E-01
(PID.TID 0000.0001)                       cg2d_iters =    24
(PID.TID 0000.0001)                         cg2d_res =    6.75612889374358E-14
time,SST,SSS,fu,fv,Q,E-P,i0,i1,a,b =   4.6656E+06 -4.2747E-01  3.4469E+01 -1.8264E-02 -1.2518E-02  2.3296E+02  0.0000E+00     2     3  3.0000E-01  7.0000E-01
time,fu0,fu1,fu =   4.6656E+06 -1.4435E-02 -2.7199E-02 -1.8264E-02  3.0000E-01  7.0000E-01
 cg2d: Sum(rhs),rhsMax =  -2.29252380967715E-14  7.10351632912545E+00
(PID.TID 0000.0001)                    cg2d_init_res =    3.56313555446657E-01
(PID.TID 0000.0001)                       cg2d_iters =    24
(PID.TID 0000.0001)                         cg2d_res =    6.85594805525660E-14
time,SST,SSS,fu,fv,Q,E-P,i0,i1,a,b =   4.7088E+06 -4.2167E-01  3.4471E+01 -1.8477E-02 -1.2234E-02  2.3254E+02  0.0000E+00     2     3  3.1667E-01  6.8333E-01
time,fu0,fu1,fu =   4.7088E+06 -1.4435E-02 -2.7199E-02 -1.8477E-02  3.1667E-01  6.8333E-01
 cg2d: Sum(rhs),rhsMax =  -2.01574867908505E-14  7.04068575735637E+00
(PID.TID 0000.0001)                    cg2d_init_res =    3.62692037968059E-01
(PID.TID 0000.0001)                       cg2d_iters =    24
(PID.TID 0000.0001)                         cg2d_res =    6.75740816939767E-14
time,SST,SSS,fu,fv,Q,E-P,i0,i1,a,b =   4.7520E+06 -4.1587E-01  3.4474E+01 -1.8689E-02 -1.1950E-02  2.3212E+02  0.0000E+00     2     3  3.3333E-01  6.6667E-01
time,fu0,fu1,fu =   4.7520E+06 -1.4435E-02 -2.7199E-02 -1.8689E-02  3.3333E-01  6.6667E-01
 cg2d: Sum(rhs),rhsMax =  -2.35506059098611E-14  7.11716414086520E+00
(PID.TID 0000.0001)                    cg2d_init_res =    3.59921027436331E-01
(PID.TID 0000.0001)                       cg2d_iters =    24
(PID.TID 0000.0001)                         cg2d_res =    6.33723956871584E-14
time,SST,SSS,fu,fv,Q,E-P,i0,i1,a,b =   4.7952E+06 -4.1007E-01  3.4476E+01 -1.8902E-02 -1.1665E-02  2.3170E+02  0.0000E+00     2     3  3.5000E-01  6.5000E-01
time,fu0,fu1,fu =   4.7952E+06 -1.4435E-02 -2.7199E-02 -1.8902E-02  3.5000E-01  6.5000E-01
 cg2d: Sum(rhs),rhsMax =  -2.03231528828063E-14  7.18747103836040E+00
(PID.TID 0000.0001)                    cg2d_init_res =    3.55065320064291E-01
(PID.TID 0000.0001)                       cg2d_iters =    24
(PID.TID 0000.0001)                         cg2d_res =    5.87306474534403E-14
time,SST,SSS,fu,fv,Q,E-P,i0,i1,a,b =   4.8384E+06 -4.0427E-01  3.4479E+01 -1.9115E-02 -1.1381E-02  2.3128E+02  0.0000E+00     2     3  3.6667E-01  6.3333E-01
time,fu0,fu1,fu =   4.8384E+06 -1.4435E-02 -2.7199E-02 -1.9115E-02  3.6667E-01  6.3333E-01
 cg2d: Sum(rhs),rhsMax =  -1.70228414697604E-14  7.24780303577107E+00
(PID.TID 0000.0001)                    cg2d_init_res =    3.48298742876362E-01
(PID.TID 0000.0001)                       cg2d_iters =    24
(PID.TID 0000.0001)                         cg2d_res =    5.41042805280525E-14
time,SST,SSS,fu,fv,Q,E-P,i0,i1,a,b =   4.8816E+06 -3.9848E-01  3.4482E+01 -1.9328E-02 -1.1097E-02  2.3087E+02  0.0000E+00     2     3  3.8333E-01  6.1667E-01
time,fu0,fu1,fu =   4.8816E+06 -1.4435E-02 -2.7199E-02 -1.9328E-02  3.8333E-01  6.1667E-01
 cg2d: Sum(rhs),rhsMax =  -1.81079110039839E-14  7.29465566157273E+00
(PID.TID 0000.0001)                    cg2d_init_res =    3.39990177045254E-01
(PID.TID 0000.0001)                       cg2d_iters =    24
(PID.TID 0000.0001)                         cg2d_res =    4.99072512959190E-14
time,SST,SSS,fu,fv,Q,E-P,i0,i1,a,b =   4.9248E+06 -3.9268E-01  3.4484E+01 -1.9540E-02 -1.0813E-02  2.3045E+02  0.0000E+00     2     3  4.0000E-01  6.0000E-01
time,fu0,fu1,fu =   4.9248E+06 -1.4435E-02 -2.7199E-02 -1.9540E-02  4.0000E-01  6.0000E-01
 cg2d: Sum(rhs),rhsMax =  -1.59525170850827E-14  7.32499666592287E+00
(PID.TID 0000.0001)                    cg2d_init_res =    3.30668479890920E-01
(PID.TID 0000.0001)                       cg2d_iters =    24
(PID.TID 0000.0001)                         cg2d_res =    4.67133867165614E-14
time,SST,SSS,fu,fv,Q,E-P,i0,i1,a,b =   4.9680E+06 -3.8688E-01  3.4487E+01 -1.9753E-02 -1.0528E-02  2.3003E+02  0.0000E+00     2     3  4.1667E-01  5.8333E-01
time,fu0,fu1,fu =   4.9680E+06 -1.4435E-02 -2.7199E-02 -1.9753E-02  4.1667E-01  5.8333E-01
 cg2d: Sum(rhs),rhsMax =  -2.07368844318268E-14  7.33641124873591E+00
(PID.TID 0000.0001)                    cg2d_init_res =    3.20962335837975E-01
(PID.TID 0000.0001)                       cg2d_iters =    24
(PID.TID 0000.0001)                         cg2d_res =    4.50580285286141E-14
time,SST,SSS,fu,fv,Q,E-P,i0,i1,a,b =   5.0112E+06 -3.8108E-01  3.4490E+01 -1.9966E-02 -1.0244E-02  2.2961E+02  0.0000E+00     2     3  4.3333E-01  5.6667E-01
time,fu0,fu1,fu =   5.0112E+06 -1.4435E-02 -2.7199E-02 -1.9966E-02  4.3333E-01  5.6667E-01
 cg2d: Sum(rhs),rhsMax =  -2.06015760007006E-14  7.32721239535877E+00
(PID.TID 0000.0001)                    cg2d_init_res =    3.11542483561007E-01
(PID.TID 0000.0001)                       cg2d_iters =    24
(PID.TID 0000.0001)                         cg2d_res =    4.49002582801029E-14
time,SST,SSS,fu,fv,Q,E-P,i0,i1,a,b =   5.0544E+06 -3.7528E-01  3.4492E+01 -2.0179E-02 -9.9597E-03  2.2919E+02  0.0000E+00     2     3  4.5000E-01  5.5000E-01
time,fu0,fu1,fu =   5.0544E+06 -1.4435E-02 -2.7199E-02 -2.0179E-02  4.5000E-01  5.5000E-01
 cg2d: Sum(rhs),rhsMax =  -1.67730412892197E-14  7.29651187008047E+00
(PID.TID 0000.0001)                    cg2d_init_res =    3.03074552311029E-01
(PID.TID 0000.0001)                       cg2d_iters =    24
(PID.TID 0000.0001)                         cg2d_res =    4.70172246857925E-14
time,SST,SSS,fu,fv,Q,E-P,i0,i1,a,b =   5.0976E+06 -3.6948E-01  3.4495E+01 -2.0391E-02 -9.6754E-03  2.2877E+02  0.0000E+00     2     3  4.6667E-01  5.3333E-01
time,fu0,fu1,fu =   5.0976E+06 -1.4435E-02 -2.7199E-02 -2.0391E-02  4.6667E-01  5.3333E-01
 cg2d: Sum(rhs),rhsMax =  -2.05391259555654E-14  7.24424989802394E+00
(PID.TID 0000.0001)                    cg2d_init_res =    2.96164038026678E-01
(PID.TID 0000.0001)                       cg2d_iters =    24
(PID.TID 0000.0001)                         cg2d_res =    5.09373429301706E-14
time,SST,SSS,fu,fv,Q,E-P,i0,i1,a,b =   5.1408E+06 -3.6368E-01  3.4497E+01 -2.0604E-02 -9.3911E-03  2.2836E+02  0.0000E+00     2     3  4.8333E-01  5.1667E-01
time,fu0,fu1,fu =   5.1408E+06 -1.4435E-02 -2.7199E-02 -2.0604E-02  4.8333E-01  5.1667E-01
 cg2d: Sum(rhs),rhsMax =  -2.09866846123674E-14  7.17118397144802E+00
(PID.TID 0000.0001)                    cg2d_init_res =    2.91297785908156E-01
(PID.TID 0000.0001)                       cg2d_iters =    24
(PID.TID 0000.0001)                         cg2d_res =    5.54411699219889E-14
  --> objf_test(bi,bj)   =  0.
  --> objf_tracer(bi,bj) =  0.
  --> objf_atl(bi,bj) = -0.135251644
  local fc =  -0.135251644
  global fc =  -0.135251644
(PID.TID 0000.0001)  MDSREADFIELD: opening file: xx_theta.0000000000.001.001.data
 ph-grd 3 -------------------------------
 ph-grd 3     0    2   44    2    1   -.135251639E+00 -.135251634E+00 -.135251644E+00
 ph-grd 3     0    2    2    2    0   0.488581132E-06 0.488566937E-06 0.290532719E-04
 ph-grd  ierr ---------------------------
 ph-grd  ierr =  0, icomp =  2, ichknum =  2
(PID.TID 0000.0001) 
(PID.TID 0000.0001) // =======================================================
(PID.TID 0000.0001) // Gradient check results  >>> START <<<
(PID.TID 0000.0001) // =======================================================
(PID.TID 0000.0001) 
(PID.TID 0000.0001) 
(PID.TID 0000.0001)  EPS =  0.100E-01
(PID.TID 0000.0001) grdchk output:            procId               I        ITILEPOS        JTILEPOS           LAYER            X(I)      X(I)+/-EPS
(PID.TID 0000.0001) grdchk output:                                FC             FC1             FC2 FC1-FC2/(2*EPS)    ADJ GRAD(FC)   1-FDGRD/ADGRD
(PID.TID 0000.0001) grdchk output:                 0               1              43               2               1 0.000000000E+00 -.100000000E-01
(PID.TID 0000.0001) grdchk output:                   -.135251639E+00 -.135251632E+00 -.135251646E+00 0.692437439E-06 0.698560902E-06 0.876582518E-02
(PID.TID 0000.0001) 
(PID.TID 0000.0001) grdchk output:                 0               2              44               2               1 0.000000000E+00 -.100000000E-01
(PID.TID 0000.0001) grdchk output:                   -.135251639E+00 -.135251634E+00 -.135251644E+00 0.488566937E-06 0.488581132E-06 0.290532719E-04
(PID.TID 0000.0001) 
(PID.TID 0000.0001) 
(PID.TID 0000.0001) // =======================================================
(PID.TID 0000.0001) // Gradient check results  >>> END <<<
(PID.TID 0000.0001) // =======================================================
(PID.TID 0000.0001) 
(PID.TID 0000.0001)   Seconds in section "ALL                    [THE_MODEL_MAIN]":
(PID.TID 0000.0001)           User time:  316.530009
(PID.TID 0000.0001)         System time:  19.25
(PID.TID 0000.0001)     Wall clock time:  500.791495
(PID.TID 0000.0001)          No. starts: 1
(PID.TID 0000.0001)           No. stops: 1
(PID.TID 0000.0001)   Seconds in section "INITIALISE_FIXED       [THE_MODEL_MAIN]":
(PID.TID 0000.0001)           User time:  0.0999999996
(PID.TID 0000.0001)         System time:  0.0299999993
(PID.TID 0000.0001)     Wall clock time:  0.318652034
(PID.TID 0000.0001)          No. starts: 1
(PID.TID 0000.0001)           No. stops: 1
(PID.TID 0000.0001)   Seconds in section "CTRL_UNPACK      [THE_MODEL_MAIN]":
(PID.TID 0000.0001)           User time:  0.109999999
(PID.TID 0000.0001)         System time:  0.0600000042
(PID.TID 0000.0001)     Wall clock time:  0.626916051
(PID.TID 0000.0001)          No. starts: 1
(PID.TID 0000.0001)           No. stops: 1
(PID.TID 0000.0001)   Seconds in section "ADTHE_MAIN_LOOP          [ADJOINT RUN]":
(PID.TID 0000.0001)           User time:  184.390001
(PID.TID 0000.0001)         System time:  12.8800003
(PID.TID 0000.0001)     Wall clock time:  314.823218
(PID.TID 0000.0001)          No. starts: 1
(PID.TID 0000.0001)           No. stops: 1
(PID.TID 0000.0001)   Seconds in section "UPDATE_ETAH        [FORWARD_STEP]":
(PID.TID 0000.0001)           User time:  0.0399930477
(PID.TID 0000.0001)         System time:  0.0399999619
(PID.TID 0000.0001)     Wall clock time:  0.471301079
(PID.TID 0000.0001)          No. starts: 720
(PID.TID 0000.0001)           No. stops: 720
(PID.TID 0000.0001)   Seconds in section "EXTERNAL_FIELDS_LOAD[FORWARD_STEP]":
(PID.TID 0000.0001)           User time:  0.850084782
(PID.TID 0000.0001)         System time:  0.479997993
(PID.TID 0000.0001)     Wall clock time:  9.27520692
(PID.TID 0000.0001)          No. starts: 720
(PID.TID 0000.0001)           No. stops: 720
(PID.TID 0000.0001)   Seconds in section "THERMODYNAMICS      [FORWARD_STEP]":
(PID.TID 0000.0001)           User time:  113.969992
(PID.TID 0000.0001)         System time:  0.469999656
(PID.TID 0000.0001)     Wall clock time:  126.081581
(PID.TID 0000.0001)          No. starts: 720
(PID.TID 0000.0001)           No. stops: 720
(PID.TID 0000.0001)   Seconds in section "BLOCKING_EXCHANGES  [FORWARD_STEP]":
(PID.TID 0000.0001)           User time:  1.08981776
(PID.TID 0000.0001)         System time:  0.0700006485
(PID.TID 0000.0001)     Wall clock time:  2.25725818
(PID.TID 0000.0001)          No. starts: 1440
(PID.TID 0000.0001)           No. stops: 1440
(PID.TID 0000.0001)   Seconds in section "DYNAMICS            [FORWARD_STEP]":
(PID.TID 0000.0001)           User time:  69.0400474
(PID.TID 0000.0001)         System time:  0.140000612
(PID.TID 0000.0001)     Wall clock time:  71.758361
(PID.TID 0000.0001)          No. starts: 720
(PID.TID 0000.0001)           No. stops: 720
(PID.TID 0000.0001)   Seconds in section "SOLVE_FOR_PRESSURE  [FORWARD_STEP]":
(PID.TID 0000.0001)           User time:  6.15020239
(PID.TID 0000.0001)         System time:  0.140001133
(PID.TID 0000.0001)     Wall clock time:  7.08998597
(PID.TID 0000.0001)          No. starts: 720
(PID.TID 0000.0001)           No. stops: 720
(PID.TID 0000.0001)   Seconds in section "THE_CORRECTION_STEP [FORWARD_STEP]":
(PID.TID 0000.0001)           User time:  6.70976329
(PID.TID 0000.0001)         System time:  0.589998245
(PID.TID 0000.0001)     Wall clock time:  13.5409907
(PID.TID 0000.0001)          No. starts: 720
(PID.TID 0000.0001)           No. stops: 720
(PID.TID 0000.0001)   Seconds in section "DO_THE_MODEL_IO     [FORWARD_STEP]":
(PID.TID 0000.0001)           User time:  1.72005081
(PID.TID 0000.0001)         System time:  9.07000017
(PID.TID 0000.0001)     Wall clock time:  82.4571726
(PID.TID 0000.0001)          No. starts: 720
(PID.TID 0000.0001)           No. stops: 720
(PID.TID 0000.0001)   Seconds in section "WRITE_CHECKPOINT    [FORWARD_STEP]":
(PID.TID 0000.0001)           User time:  0.0300197601
(PID.TID 0000.0001)         System time:  0.0300004482
(PID.TID 0000.0001)     Wall clock time:  0.428794622
(PID.TID 0000.0001)          No. starts: 720
(PID.TID 0000.0001)           No. stops: 720
(PID.TID 0000.0001)   Seconds in section "CTRL_PACK           [THE_MODEL_MAIN]":
(PID.TID 0000.0001)           User time:  0.0699920654
(PID.TID 0000.0001)         System time:  0.149999619
(PID.TID 0000.0001)     Wall clock time:  2.81033897
(PID.TID 0000.0001)          No. starts: 1
(PID.TID 0000.0001)           No. stops: 1
(PID.TID 0000.0001)   Seconds in section "GRDCHK_MAIN         [THE_MODEL_MAIN]":
(PID.TID STOP NORMAL END statement executed
0000.0001)           User time:  131.860016
(PID.TID 0000.0001)         System time:  6.13000011
(PID.TID 0000.0001)     Wall clock time:  182.210281
(PID.TID 0000.0001)          No. starts: 1
(PID.TID 0000.0001)           No. stops: 1
(PID.TID 0000.0001)   Seconds in section "ADJOINT SPIN-UP":
(PID.TID 0000.0001)           User time:  0.459991455
(PID.TID 0000.0001)         System time:  0.929997444
(PID.TID 0000.0001)     Wall clock time:  7.01199806
(PID.TID 0000.0001)          No. starts: 4
(PID.TID 0000.0001)           No. stops: 4
(PID.TID 0000.0001)   Seconds in section "INITIALISE_VARIA    [THE_MAIN_LOOP]":
(PID.TID 0000.0001)           User time:  0.379989624
(PID.TID 0000.0001)         System time:  0.409998894
(PID.TID 0000.0001)     Wall clock time:  3.06544912
(PID.TID 0000.0001)          No. starts: 4
(PID.TID 0000.0001)           No. stops: 4
(PID.TID 0000.0001)   Seconds in section "WRITE_STATE         [THE_MAIN_LOOP]":
(PID.TID 0000.0001)           User time:  0.0800018311
(PID.TID 0000.0001)         System time:  0.51999855
(PID.TID 0000.0001)     Wall clock time:  3.94179487
(PID.TID 0000.0001)          No. starts: 4
(PID.TID 0000.0001)           No. stops: 4
(PID.TID 0000.0001)   Seconds in section "MAIN LOOP           [THE_MAIN_LOOP]":
(PID.TID 0000.0001)           User time:  131.289993
(PID.TID 0000.0001)         System time:  4.6600008
(PID.TID 0000.0001)     Wall clock time:  170.528266
(PID.TID 0000.0001)          No. starts: 4
(PID.TID 0000.0001)           No. stops: 4
(PID.TID 0000.0001)   Seconds in section "FORWARD_STEP        [THE_MAIN_LOOP]":
(PID.TID 0000.0001)           User time:  131.279984
(PID.TID 0000.0001)         System time:  4.52000141
(PID.TID 0000.0001)     Wall clock time:  169.939758
(PID.TID 0000.0001)          No. starts: 480
(PID.TID 0000.0001)           No. stops: 480
(PID.TID 0000.0001)   Seconds in section "COST_TILE           [THE_MAIN_LOOP]":
(PID.TID 0000.0001)           User time:  0.
(PID.TID 0000.0001)         System time:  0.0599985123
(PID.TID 0000.0001)     Wall clock time:  0.194863677
(PID.TID 0000.0001)          No. starts: 480
(PID.TID 0000.0001)           No. stops: 480
(PID.TID 0000.0001)   Seconds in section "COST_FINAL         [ADJOINT SPIN-DOWN]":
(PID.TID 0000.0001)           User time:  0.
(PID.TID 0000.0001)         System time:  0.
(PID.TID 0000.0001)     Wall clock time:  0.00175917149
(PID.TID 0000.0001)          No. starts: 4
(PID.TID 0000.0001)           No. stops: 4
(PID.TID 0000.0001)   Seconds in section "WRITE_CHECKPOINT       [THE_MODEL_MAIN]":
(PID.TID 0000.0001)           User time:  0.
(PID.TID 0000.0001)         System time:  0.
(PID.TID 0000.0001)     Wall clock time:  0.000393986702
(PID.TID 0000.0001)          No. starts: 1
(PID.TID 0000.0001)           No. stops: 1
(PID.TID 0000.0001) // ======================================================
(PID.TID 0000.0001) // Tile <-> Tile communication statistics
(PID.TID 0000.0001) // ======================================================
(PID.TID 0000.0001) // o Tile number: 000001
(PID.TID 0000.0001) //         No. X exchanges =              0
(PID.TID 0000.0001) //            Max. X spins =              0
(PID.TID 0000.0001) //            Min. X spins =     1000000000
(PID.TID 0000.0001) //          Total. X spins =              0
(PID.TID 0000.0001) //            Avg. X spins =       0.00E+00
(PID.TID 0000.0001) //         No. Y exchanges =              0
(PID.TID 0000.0001) //            Max. Y spins =              0
(PID.TID 0000.0001) //            Min. Y spins =     1000000000
(PID.TID 0000.0001) //          Total. Y spins =              0
(PID.TID 0000.0001) //            Avg. Y spins =       0.00E+00
(PID.TID 0000.0001) // o Thread number: 000001
(PID.TID 0000.0001) //            No. barriers =         293240
(PID.TID 0000.0001) //      Max. barrier spins =              1
(PID.TID 0000.0001) //      Min. barrier spins =              1
(PID.TID 0000.0001) //     Total barrier spins =         293240
(PID.TID 0000.0001) //      Avg. barrier spins =       1.00E+00
