(PID.TID 0000.0001) 
(PID.TID 0000.0001) // ======================================================
(PID.TID 0000.0001) //                      MITgcm UV
(PID.TID 0000.0001) //                      =========
(PID.TID 0000.0001) // ======================================================
(PID.TID 0000.0001) // execution environment starting up...
(PID.TID 0000.0001) 
(PID.TID 0000.0001) // MITgcmUV version:  checkpoint61g
(PID.TID 0000.0001) // Build user:        jmc
(PID.TID 0000.0001) // Build host:        faulks
(PID.TID 0000.0001) // Build date:        Mon Dec 29 21:21:34 EST 2008
(PID.TID 0000.0001) 
(PID.TID 0000.0001) // =======================================================
(PID.TID 0000.0001) // Execution Environment parameter file "eedata"
(PID.TID 0000.0001) // =======================================================
(PID.TID 0000.0001) ># Example "eedata" file
(PID.TID 0000.0001) ># Lines beginning "#" are comments
(PID.TID 0000.0001) ># nTx - No. threads per process in X
(PID.TID 0000.0001) ># nTy - No. threads per process in Y
(PID.TID 0000.0001) > &EEPARMS
(PID.TID 0000.0001) > &
(PID.TID 0000.0001) ># Note: Some systems use & as the
(PID.TID 0000.0001) ># namelist terminator. Other systems
(PID.TID 0000.0001) ># use a / character (as shown here).
(PID.TID 0000.0001) 
(PID.TID 0000.0001) // =======================================================
(PID.TID 0000.0001) // Computational Grid Specification ( see files "SIZE.h" )
(PID.TID 0000.0001) //                                  ( and "eedata"       )
(PID.TID 0000.0001) // =======================================================
(PID.TID 0000.0001)      nPx =    1 ; /* No. processes in X */
(PID.TID 0000.0001)      nPy =    1 ; /* No. processes in Y */
(PID.TID 0000.0001)      nSx =    1 ; /* No. tiles in X per process */
(PID.TID 0000.0001)      nSy =    1 ; /* No. tiles in Y per process */
(PID.TID 0000.0001)      sNx =    5 ; /* Tile size in X */
(PID.TID 0000.0001)      sNy =    5 ; /* Tile size in Y */
(PID.TID 0000.0001)      OLx =    2 ; /* Tile overlap distance in X */
(PID.TID 0000.0001)      OLy =    2 ; /* Tile overlap distance in Y */
(PID.TID 0000.0001)      nTx =    1 ; /* No. threads in X per process */
(PID.TID 0000.0001)      nTy =    1 ; /* No. threads in Y per process */
(PID.TID 0000.0001)       Nr =    4 ; /* No. levels in the vertical   */
(PID.TID 0000.0001)       nX =    5 ; /* Total domain size in X ( = nPx*nSx*sNx ) */
(PID.TID 0000.0001)       nY =    5 ; /* Total domain size in Y ( = nPy*nSy*sNy ) */
(PID.TID 0000.0001)   nTiles =    1 ; /* Total no. tiles per process ( = nSx*nSy ) */
(PID.TID 0000.0001)   nProcs =    1 ; /* Total no. processes ( = nPx*nPy ) */
(PID.TID 0000.0001) nThreads =    1 ; /* Total no. threads per process ( = nTx*nTy ) */
(PID.TID 0000.0001) usingMPI =    F ; /* Flag used to control whether MPI is in use */
(PID.TID 0000.0001)                   /*  note: To execute a program with MPI calls */
(PID.TID 0000.0001)                   /*  it must be launched appropriately e.g     */
(PID.TID 0000.0001)                   /*  "mpirun -np 64 ......"                    */
(PID.TID 0000.0001) useCoupler=   F ; /* Flag used to control communications with */
(PID.TID 0000.0001)                   /*  other model components, through a coupler */
(PID.TID 0000.0001) 
(PID.TID 0000.0001) // ======================================================
(PID.TID 0000.0001) // Mapping of tiles to threads
(PID.TID 0000.0001) // ======================================================
(PID.TID 0000.0001) // -o- Thread   1, tiles (   1:   1,   1:   1)
(PID.TID 0000.0001) 
(PID.TID 0000.0001) // ======================================================
(PID.TID 0000.0001) // Tile <-> Tile connectvity table
(PID.TID 0000.0001) // ======================================================
(PID.TID 0000.0001) // Tile number: 000001 (process no. = 000001)
(PID.TID 0000.0001) //        WEST: Tile = 000001, Process = 000001, Comm = put
(PID.TID 0000.0001) //                bi = 000001, bj = 000001
(PID.TID 0000.0001) //        EAST: Tile = 000001, Process = 000001, Comm = put
(PID.TID 0000.0001) //                bi = 000001, bj = 000001
(PID.TID 0000.0001) //       SOUTH: Tile = 000001, Process = 000001, Comm = put
(PID.TID 0000.0001) //                bi = 000001, bj = 000001
(PID.TID 0000.0001) //       NORTH: Tile = 000001, Process = 000001, Comm = put
(PID.TID 0000.0001) //                bi = 000001, bj = 000001
(PID.TID 0000.0001) 
(PID.TID 0000.0001) // =======================================================
(PID.TID 0000.0001) // Model parameter file "data"
(PID.TID 0000.0001) // =======================================================
(PID.TID 0000.0001) ># Model parameters
(PID.TID 0000.0001) ># Continuous equation parameters
(PID.TID 0000.0001) > &PARM01
(PID.TID 0000.0001) > tRef=4.,4.,4.,4.,
(PID.TID 0000.0001) > sRef=35.,35.,35.,35.,
(PID.TID 0000.0001) > viscAz=1.E-1,
(PID.TID 0000.0001) > viscAh=1.E5,
(PID.TID 0000.0001) ># viscA4=1.E16,
(PID.TID 0000.0001) ># useJamartWetPoints=.TRUE.,
(PID.TID 0000.0001) > no_slip_sides=.FALSE.,
(PID.TID 0000.0001) > no_slip_bottom=.TRUE.,
(PID.TID 0000.0001) > diffKhT=4.E2,
(PID.TID 0000.0001) > diffKzT=1.E-4,
(PID.TID 0000.0001) > diffKhS=0.0,
(PID.TID 0000.0001) > diffKzS=3.E-5,
(PID.TID 0000.0001) > f0=-1.1914E-04,
(PID.TID 0000.0001) > beta=1.3094E-11,
(PID.TID 0000.0001) > tAlpha=2.E-4,
(PID.TID 0000.0001) ># sBeta =7.4E-4,
(PID.TID 0000.0001) > sBeta = 0.,
(PID.TID 0000.0001) > gravity=9.81,
(PID.TID 0000.0001) > gBaro=9.81,
(PID.TID 0000.0001) > rigidLid=.FALSE.,
(PID.TID 0000.0001) > implicitFreeSurface=.TRUE.,
(PID.TID 0000.0001) > eosType='LINEAR',
(PID.TID 0000.0001) > writeStatePrec=64,
(PID.TID 0000.0001) > writeBinaryPrec=64,
(PID.TID 0000.0001) > readBinaryPrec=64,
(PID.TID 0000.0001) > hFacMin=.05,
(PID.TID 0000.0001) > smoothAbsFuncRange = -1.e-2,
(PID.TID 0000.0001) >#momAdvection = .false.,
(PID.TID 0000.0001) >#momViscosity = .false.,
(PID.TID 0000.0001) >#momPressureForcing = .false.,
(PID.TID 0000.0001) > &
(PID.TID 0000.0001) >
(PID.TID 0000.0001) >
(PID.TID 0000.0001) ># Elliptic solver parameters
(PID.TID 0000.0001) > &PARM02
(PID.TID 0000.0001) > cg2dMaxIters=100,
(PID.TID 0000.0001) > cg2dTargetResidual=1.E-13,
(PID.TID 0000.0001) > &
(PID.TID 0000.0001) ># Time stepping parameters
(PID.TID 0000.0001) > &PARM03
(PID.TID 0000.0001) > niter0=0,
(PID.TID 0000.0001) > ntimesteps=100,
(PID.TID 0000.0001) >#startTime = 0.,
(PID.TID 0000.0001) >#endTime = 7776000,
(PID.TID 0000.0001) > deltaTmom=3600.0,
(PID.TID 0000.0001) > deltaTtracer=3600.0,
(PID.TID 0000.0001) > abEps=0.1,
(PID.TID 0000.0001) > pChkptFreq= 7776000.0,
(PID.TID 0000.0001) > chkptFreq=  0.0,
(PID.TID 0000.0001) >#dumpFreq=   1.0,
(PID.TID 0000.0001) > monitorFreq=1.0,
(PID.TID 0000.0001) > &
(PID.TID 0000.0001) ># Gridding parameters
(PID.TID 0000.0001) > &PARM04
(PID.TID 0000.0001) > usingCartesianGrid=.TRUE.,
(PID.TID 0000.0001) > usingSphericalPolarGrid=.FALSE.,
(PID.TID 0000.0001) > delX=5*200E3,
(PID.TID 0000.0001) > delY=5*200E3,
(PID.TID 0000.0001) ># 1 layer
(PID.TID 0000.0001) >#delZ=5001.,500.,500.,500.,
(PID.TID 0000.0001) ># 2 layers
(PID.TID 0000.0001) >#delZ=1000.,5000.,500.,5000.,
(PID.TID 0000.0001) ># 4 layers
(PID.TID 0000.0001) > delZ=100.,400.,500.,5000.,
(PID.TID 0000.0001) >#delZ=1000.,1500.,1500.,1500.,
(PID.TID 0000.0001) > &
(PID.TID 0000.0001) > &PARM05
(PID.TID 0000.0001) >#bathyFile='walls.bigRidge',
(PID.TID 0000.0001) > bathyFile='noWalls.bigRidge',
(PID.TID 0000.0001) >#bathyFile='box.bigRidge',
(PID.TID 0000.0001) >#bathyFile='meridchannel.bigRidge',
(PID.TID 0000.0001) > hydrogThetaFile=,
(PID.TID 0000.0001) > hydrogSaltFile=,
(PID.TID 0000.0001) > zonalWindFile='windx.sin_y',
(PID.TID 0000.0001) > meridWindFile=,
(PID.TID 0000.0001) > surfQFile=,
(PID.TID 0000.0001) > EmPmRFile=,
(PID.TID 0000.0001) > &
(PID.TID 0000.0001) 
(PID.TID 0000.0001) S/R INI_PARMS ; starts to read PARM01
(PID.TID 0000.0001) S/R INI_PARMS ; read PARM01 : OK
(PID.TID 0000.0001) S/R INI_PARMS ; starts to read PARM02
(PID.TID 0000.0001) S/R INI_PARMS ; read PARM02 : OK
(PID.TID 0000.0001) S/R INI_PARMS ; starts to read PARM03
(PID.TID 0000.0001) S/R INI_PARMS ; read PARM03 : OK
(PID.TID 0000.0001) S/R INI_PARMS ; starts to read PARM04
(PID.TID 0000.0001) S/R INI_PARMS ; read PARM04 : OK
(PID.TID 0000.0001) S/R INI_PARMS ; starts to read PARM05
(PID.TID 0000.0001) S/R INI_PARMS ; read PARM05 : OK
(PID.TID 0000.0001)  PACKAGES_BOOT: opening data.pkg
(PID.TID 0000.0001)  OPEN_COPY_DATA_FILE: opening file data.pkg
(PID.TID 0000.0001) // =======================================================
(PID.TID 0000.0001) // Parameter file "data.pkg"
(PID.TID 0000.0001) // =======================================================
(PID.TID 0000.0001) >#
(PID.TID 0000.0001) ># ********
(PID.TID 0000.0001) ># Packages
(PID.TID 0000.0001) ># ********
(PID.TID 0000.0001) > &PACKAGES
(PID.TID 0000.0001) > useGMRedi    = .FALSE.,
(PID.TID 0000.0001) > useKPP       = .FALSE.,
(PID.TID 0000.0001) > useGrdchk    = .TRUE.,
(PID.TID 0000.0001) > useECCO      = .FALSE.,
(PID.TID 0000.0001) > &
(PID.TID 0000.0001) 
(PID.TID 0000.0001)  PACKAGES_BOOT: finished reading data.pkg
(PID.TID 0000.0001) OPTIM_READPARMS: opening data.optim
(PID.TID 0000.0001)  OPEN_COPY_DATA_FILE: opening file data.optim
(PID.TID 0000.0001) // =======================================================
(PID.TID 0000.0001) // Parameter file "data.optim"
(PID.TID 0000.0001) // =======================================================
(PID.TID 0000.0001) >#
(PID.TID 0000.0001) ># ********************************
(PID.TID 0000.0001) ># Off-line optimization parameters
(PID.TID 0000.0001) ># ********************************
(PID.TID 0000.0001) > &OPTIM
(PID.TID 0000.0001) > optimcycle=0,
(PID.TID 0000.0001) > /
(PID.TID 0000.0001) 
(PID.TID 0000.0001) OPTIM_READPARMS: finished reading data.optim
(PID.TID 0000.0001) CTRL_READPARMS: opening data.ctrl
(PID.TID 0000.0001)  OPEN_COPY_DATA_FILE: opening file data.ctrl
(PID.TID 0000.0001) // =======================================================
(PID.TID 0000.0001) // Parameter file "data.ctrl"
(PID.TID 0000.0001) // =======================================================
(PID.TID 0000.0001) >#
(PID.TID 0000.0001) >#
(PID.TID 0000.0001) ># *********************
(PID.TID 0000.0001) ># ECCO controlvariables
(PID.TID 0000.0001) ># *********************
(PID.TID 0000.0001) > &CTRL_NML
(PID.TID 0000.0001) ># xx_theta_file      = 'xx_theta',
(PID.TID 0000.0001) ># xx_salt_file       = 'xx_salt',
(PID.TID 0000.0001) ># xx_tr1_file        = 'xx_tr1',
(PID.TID 0000.0001) ># xx_hflux_file      = 'xx_hflux',
(PID.TID 0000.0001) ># xx_sflux_file      = 'xx_sflux',
(PID.TID 0000.0001) ># xx_tauu_file       = 'xx_tauu',
(PID.TID 0000.0001) ># xx_tauv_file       = 'xx_tauv',
(PID.TID 0000.0001) ># xx_sst_file        = 'xx_sst',
(PID.TID 0000.0001) ># xx_sss_file        = 'xx_sss',
(PID.TID 0000.0001) ># xx_diffkr_file     = 'xx_diffkr',
(PID.TID 0000.0001) ># xx_kapgm_file      = 'xx_kapgm',
(PID.TID 0000.0001) >#xx_hfacc_file      = 'xx_hfacc',
(PID.TID 0000.0001) > xx_depth_file      = 'xx_depth',
(PID.TID 0000.0001) > &
(PID.TID 0000.0001) >#
(PID.TID 0000.0001) ># *********************
(PID.TID 0000.0001) ># names for ctrl_pack/unpack
(PID.TID 0000.0001) ># *********************
(PID.TID 0000.0001) > &CTRL_PACKNAMES
(PID.TID 0000.0001) > &
(PID.TID 0000.0001) >
(PID.TID 0000.0001) 
(PID.TID 0000.0001) CTRL_READPARMS: finished reading data.ctrl
(PID.TID 0000.0001) COST_READPARMS: opening data.cost
(PID.TID 0000.0001)  OPEN_COPY_DATA_FILE: opening file data.cost
(PID.TID 0000.0001) // =======================================================
(PID.TID 0000.0001) // Parameter file "data.cost"
(PID.TID 0000.0001) // =======================================================
(PID.TID 0000.0001) >#
(PID.TID 0000.0001) >#
(PID.TID 0000.0001) ># ******************
(PID.TID 0000.0001) ># ECCO cost function
(PID.TID 0000.0001) ># ******************
(PID.TID 0000.0001) > &COST_NML
(PID.TID 0000.0001) > mult_tracer  = 0.,
(PID.TID 0000.0001) > mult_test    = 1.,
(PID.TID 0000.0001) > mult_depth   = 1.,
(PID.TID 0000.0001) > &
(PID.TID 0000.0001) 
(PID.TID 0000.0001) COST_READPARMS: finished reading data.cost
(PID.TID 0000.0001) GRDCHK_READPARMS: opening data.grdchk
(PID.TID 0000.0001)  OPEN_COPY_DATA_FILE: opening file data.grdchk
(PID.TID 0000.0001) // =======================================================
(PID.TID 0000.0001) // Parameter file "data.grdchk"
(PID.TID 0000.0001) // =======================================================
(PID.TID 0000.0001) >
(PID.TID 0000.0001) ># *******************
(PID.TID 0000.0001) ># ECCO gradient check
(PID.TID 0000.0001) ># *******************
(PID.TID 0000.0001) > &GRDCHK_NML
(PID.TID 0000.0001) > grdchk_eps       = 1.d-04,
(PID.TID 0000.0001) > nbeg             = 1,
(PID.TID 0000.0001) > nstep            = 1,
(PID.TID 0000.0001) > nend             = 25,
(PID.TID 0000.0001) > grdchkvarindex   = 20,
(PID.TID 0000.0001) > /
(PID.TID 0000.0001) 
(PID.TID 0000.0001) GRDCHK_READPARMS: finished reading data.grdchk
(PID.TID 0000.0001) 
(PID.TID 0000.0001) // =======================================================
(PID.TID 0000.0001) // Gradient check configuration  >>> START <<<
(PID.TID 0000.0001) // =======================================================
(PID.TID 0000.0001) 
(PID.TID 0000.0001)   eps:                              0.100E-03
(PID.TID 0000.0001)   First location:                           1
(PID.TID 0000.0001)   Last location:                           25
(PID.TID 0000.0001)   Increment:                                1
(PID.TID 0000.0001) 
(PID.TID 0000.0001) // =======================================================
(PID.TID 0000.0001) // Gradient check configuration  >>> END <<<
(PID.TID 0000.0001) // =======================================================
(PID.TID 0000.0001) 
(PID.TID 0000.0001) SET_PARMS: done
(PID.TID 0000.0001) Enter INI_VERTICAL_GRID: setInterFDr=    T ; setCenterDr=    F
(PID.TID 0000.0001) %MON XC_max                       =   9.0000000000000E+05
(PID.TID 0000.0001) %MON XC_min                       =   1.0000000000000E+05
(PID.TID 0000.0001) %MON XC_mean                      =   5.0000000000000E+05
(PID.TID 0000.0001) %MON XC_sd                        =   2.8284271247462E+05
(PID.TID 0000.0001) %MON XG_max                       =   8.0000000000000E+05
(PID.TID 0000.0001) %MON XG_min                       =   0.0000000000000E+00
(PID.TID 0000.0001) %MON XG_mean                      =   4.0000000000000E+05
(PID.TID 0000.0001) %MON XG_sd                        =   2.8284271247462E+05
(PID.TID 0000.0001) %MON DXC_max                      =   2.0000000000000E+05
(PID.TID 0000.0001) %MON DXC_min                      =   2.0000000000000E+05
(PID.TID 0000.0001) %MON DXC_mean                     =   2.0000000000000E+05
(PID.TID 0000.0001) %MON DXC_sd                       =   0.0000000000000E+00
(PID.TID 0000.0001) %MON DXF_max                      =   2.0000000000000E+05
(PID.TID 0000.0001) %MON DXF_min                      =   2.0000000000000E+05
(PID.TID 0000.0001) %MON DXF_mean                     =   2.0000000000000E+05
(PID.TID 0000.0001) %MON DXF_sd                       =   0.0000000000000E+00
(PID.TID 0000.0001) %MON DXG_max                      =   2.0000000000000E+05
(PID.TID 0000.0001) %MON DXG_min                      =   2.0000000000000E+05
(PID.TID 0000.0001) %MON DXG_mean                     =   2.0000000000000E+05
(PID.TID 0000.0001) %MON DXG_sd                       =   0.0000000000000E+00
(PID.TID 0000.0001) %MON DXV_max                      =   2.0000000000000E+05
(PID.TID 0000.0001) %MON DXV_min                      =   2.0000000000000E+05
(PID.TID 0000.0001) %MON DXV_mean                     =   2.0000000000000E+05
(PID.TID 0000.0001) %MON DXV_sd                       =   0.0000000000000E+00
(PID.TID 0000.0001) %MON YC_max                       =   9.0000000000000E+05
(PID.TID 0000.0001) %MON YC_min                       =   1.0000000000000E+05
(PID.TID 0000.0001) %MON YC_mean                      =   5.0000000000000E+05
(PID.TID 0000.0001) %MON YC_sd                        =   2.8284271247462E+05
(PID.TID 0000.0001) %MON YG_max                       =   8.0000000000000E+05
(PID.TID 0000.0001) %MON YG_min                       =   0.0000000000000E+00
(PID.TID 0000.0001) %MON YG_mean                      =   4.0000000000000E+05
(PID.TID 0000.0001) %MON YG_sd                        =   2.8284271247462E+05
(PID.TID 0000.0001) %MON DYC_max                      =   2.0000000000000E+05
(PID.TID 0000.0001) %MON DYC_min                      =   2.0000000000000E+05
(PID.TID 0000.0001) %MON DYC_mean                     =   2.0000000000000E+05
(PID.TID 0000.0001) %MON DYC_sd                       =   0.0000000000000E+00
(PID.TID 0000.0001) %MON DYF_max                      =   2.0000000000000E+05
(PID.TID 0000.0001) %MON DYF_min                      =   2.0000000000000E+05
(PID.TID 0000.0001) %MON DYF_mean                     =   2.0000000000000E+05
(PID.TID 0000.0001) %MON DYF_sd                       =   0.0000000000000E+00
(PID.TID 0000.0001) %MON DYG_max                      =   2.0000000000000E+05
(PID.TID 0000.0001) %MON DYG_min                      =   2.0000000000000E+05
(PID.TID 0000.0001) %MON DYG_mean                     =   2.0000000000000E+05
(PID.TID 0000.0001) %MON DYG_sd                       =   0.0000000000000E+00
(PID.TID 0000.0001) %MON DYU_max                      =   2.0000000000000E+05
(PID.TID 0000.0001) %MON DYU_min                      =   2.0000000000000E+05
(PID.TID 0000.0001) %MON DYU_mean                     =   2.0000000000000E+05
(PID.TID 0000.0001) %MON DYU_sd                       =   0.0000000000000E+00
(PID.TID 0000.0001) %MON RA_max                       =   4.0000000000000E+10
(PID.TID 0000.0001) %MON RA_min                       =   4.0000000000000E+10
(PID.TID 0000.0001) %MON RA_mean                      =   4.0000000000000E+10
(PID.TID 0000.0001) %MON RA_sd                        =   0.0000000000000E+00
(PID.TID 0000.0001) %MON RAW_max                      =   4.0000000000000E+10
(PID.TID 0000.0001) %MON RAW_min                      =   4.0000000000000E+10
(PID.TID 0000.0001) %MON RAW_mean                     =   4.0000000000000E+10
(PID.TID 0000.0001) %MON RAW_sd                       =   0.0000000000000E+00
(PID.TID 0000.0001) %MON RAS_max                      =   4.0000000000000E+10
(PID.TID 0000.0001) %MON RAS_min                      =   4.0000000000000E+10
(PID.TID 0000.0001) %MON RAS_mean                     =   4.0000000000000E+10
(PID.TID 0000.0001) %MON RAS_sd                       =   0.0000000000000E+00
(PID.TID 0000.0001) %MON RAZ_max                      =   4.0000000000000E+10
(PID.TID 0000.0001) %MON RAZ_min                      =   4.0000000000000E+10
(PID.TID 0000.0001) %MON RAZ_mean                     =   4.0000000000000E+10
(PID.TID 0000.0001) %MON RAZ_sd                       =   0.0000000000000E+00
(PID.TID 0000.0001) %MON AngleCS_max                  =   1.0000000000000E+00
(PID.TID 0000.0001) %MON AngleCS_min                  =   1.0000000000000E+00
(PID.TID 0000.0001) %MON AngleCS_mean                 =   1.0000000000000E+00
(PID.TID 0000.0001) %MON AngleCS_sd                   =   0.0000000000000E+00
(PID.TID 0000.0001) %MON AngleSN_max                  =   0.0000000000000E+00
(PID.TID 0000.0001) %MON AngleSN_min                  =   0.0000000000000E+00
(PID.TID 0000.0001) %MON AngleSN_mean                 =   0.0000000000000E+00
(PID.TID 0000.0001) %MON AngleSN_sd                   =   0.0000000000000E+00
(PID.TID 0000.0001)  MDS_READ_FIELD: opening global file: noWalls.bigRidge
(PID.TID 0000.0001) // =======================================================
(PID.TID 0000.0001) // Field Model R_low (ini_masks_etc) at iteration          1
(PID.TID 0000.0001) // CMIN =         -5.000000000000000E+03
(PID.TID 0000.0001) // CMAX =         -2.000000000000000E+03
(PID.TID 0000.0001) // CINT =          1.111111111111111E+02
(PID.TID 0000.0001) // SYMBOLS (CMIN->CMAX): -abcdefghijklmnopqrstuvwxyz+
(PID.TID 0000.0001) //                  0.0: .
(PID.TID 0000.0001) // RANGE I (Lo:Hi:Step):(  -1:   7:   1)
(PID.TID 0000.0001) // RANGE J (Lo:Hi:Step):(   7:  -1:  -1)
(PID.TID 0000.0001) // RANGE K (Lo:Hi:Step):(   1:   1:   1)
(PID.TID 0000.0001) // =======================================================
(PID.TID 0000.0001) K =   1
(PID.TID 0000.0001) //
(PID.TID 0000.0001) // |--J--|101234567
(PID.TID 0000.0001) //      7 ----+----
(PID.TID 0000.0001) //      6 ----+----
(PID.TID 0000.0001) //      5 ----+----
(PID.TID 0000.0001) //      4 ----+----
(PID.TID 0000.0001) //      3 ----+----
(PID.TID 0000.0001) //      2 ----+----
(PID.TID 0000.0001) //      1 ----+----
(PID.TID 0000.0001) //      0 ----+----
(PID.TID 0000.0001) //     -1 ----+----
(PID.TID 0000.0001) // =======================================================
(PID.TID 0000.0001) // END OF FIELD                                          =
(PID.TID 0000.0001) // =======================================================
(PID.TID 0000.0001) 
(PID.TID 0000.0001) // =======================================================
(PID.TID 0000.0001) // Field Model Ro_surf (ini_masks_etc) at iteration          1
(PID.TID 0000.0001) // CMIN =          1.000000000000000E+32
(PID.TID 0000.0001) // CMAX =         -1.000000000000000E+32
(PID.TID 0000.0001) // CINT =          0.000000000000000E+00
(PID.TID 0000.0001) // SYMBOLS (CMIN->CMAX): -abcdefghijklmnopqrstuvwxyz+
(PID.TID 0000.0001) //                  0.0: .
(PID.TID 0000.0001) // RANGE I (Lo:Hi:Step):(  -1:   7:   1)
(PID.TID 0000.0001) // RANGE J (Lo:Hi:Step):(   7:  -1:  -1)
(PID.TID 0000.0001) // RANGE K (Lo:Hi:Step):(   1:   1:   1)
(PID.TID 0000.0001) // =======================================================
(PID.TID 0000.0001) // =======================================================
(PID.TID 0000.0001) // END OF FIELD                                          =
(PID.TID 0000.0001) // =======================================================
(PID.TID 0000.0001) 
(PID.TID 0000.0001) // =======================================================
(PID.TID 0000.0001) // Field hFacC at iteration          1
(PID.TID 0000.0001) // CMIN =          1.000000000000000E+00
(PID.TID 0000.0001) // CMAX =          1.000000000000000E+00
(PID.TID 0000.0001) // CINT =          0.000000000000000E+00
(PID.TID 0000.0001) // SYMBOLS (CMIN->CMAX): -abcdefghijklmnopqrstuvwxyz+
(PID.TID 0000.0001) //                  0.0: .
(PID.TID 0000.0001) // RANGE I (Lo:Hi:Step):(  -1:   7:   1)
(PID.TID 0000.0001) // RANGE J (Lo:Hi:Step):(   7:  -1:  -1)
(PID.TID 0000.0001) // RANGE K (Lo:Hi:Step):(   1:   1:   1)
(PID.TID 0000.0001) // =======================================================
(PID.TID 0000.0001) // =======================================================
(PID.TID 0000.0001) // END OF FIELD                                          =
(PID.TID 0000.0001) // =======================================================
(PID.TID 0000.0001) 
(PID.TID 0000.0001) // =======================================================
(PID.TID 0000.0001) // Field hFacW at iteration          1
(PID.TID 0000.0001) // CMIN =          1.000000000000000E+00
(PID.TID 0000.0001) // CMAX =          1.000000000000000E+00
(PID.TID 0000.0001) // CINT =          0.000000000000000E+00
(PID.TID 0000.0001) // SYMBOLS (CMIN->CMAX): -abcdefghijklmnopqrstuvwxyz+
(PID.TID 0000.0001) //                  0.0: .
(PID.TID 0000.0001) // RANGE I (Lo:Hi:Step):(  -1:   7:   1)
(PID.TID 0000.0001) // RANGE J (Lo:Hi:Step):(   7:  -1:  -1)
(PID.TID 0000.0001) // RANGE K (Lo:Hi:Step):(   1:   1:   1)
(PID.TID 0000.0001) // =======================================================
(PID.TID 0000.0001) // =======================================================
(PID.TID 0000.0001) // END OF FIELD                                          =
(PID.TID 0000.0001) // =======================================================
(PID.TID 0000.0001) 
(PID.TID 0000.0001) // =======================================================
(PID.TID 0000.0001) // Field hFacS at iteration          1
(PID.TID 0000.0001) // CMIN =          1.000000000000000E+00
(PID.TID 0000.0001) // CMAX =          1.000000000000000E+00
(PID.TID 0000.0001) // CINT =          0.000000000000000E+00
(PID.TID 0000.0001) // SYMBOLS (CMIN->CMAX): -abcdefghijklmnopqrstuvwxyz+
(PID.TID 0000.0001) //                  0.0: .
(PID.TID 0000.0001) // RANGE I (Lo:Hi:Step):(  -1:   7:   1)
(PID.TID 0000.0001) // RANGE J (Lo:Hi:Step):(   7:  -1:  -1)
(PID.TID 0000.0001) // RANGE K (Lo:Hi:Step):(   1:   1:   1)
(PID.TID 0000.0001) // =======================================================
(PID.TID 0000.0001) // =======================================================
(PID.TID 0000.0001) // END OF FIELD                                          =
(PID.TID 0000.0001) // =======================================================
(PID.TID 0000.0001) 
(PID.TID 0000.0001) 
(PID.TID 0000.0001) // ===================================
(PID.TID 0000.0001) // GAD parameters :
(PID.TID 0000.0001) // ===================================
(PID.TID 0000.0001) tempAdvScheme =   /* Temp. Horiz.Advection scheme selector */
(PID.TID 0000.0001)                       2
(PID.TID 0000.0001)     ;
(PID.TID 0000.0001) tempVertAdvScheme =   /* Temp. Vert. Advection scheme selector */
(PID.TID 0000.0001)                       2
(PID.TID 0000.0001)     ;
(PID.TID 0000.0001) tempMultiDimAdvec =   /* use Muti-Dim Advec method for Temp */
(PID.TID 0000.0001)                   F
(PID.TID 0000.0001)     ;
(PID.TID 0000.0001) tempSOM_Advection = /* use 2nd Order Moment Advection for Temp */
(PID.TID 0000.0001)                   F
(PID.TID 0000.0001)     ;
(PID.TID 0000.0001) AdamsBashforthGt = /* apply Adams-Bashforth extrapolation on Gt */
(PID.TID 0000.0001)                   T
(PID.TID 0000.0001)     ;
(PID.TID 0000.0001) AdamsBashforth_T = /* apply Adams-Bashforth extrapolation on Temp */
(PID.TID 0000.0001)                   F
(PID.TID 0000.0001)     ;
(PID.TID 0000.0001) saltAdvScheme =   /* Salt. Horiz.advection scheme selector */
(PID.TID 0000.0001)                       2
(PID.TID 0000.0001)     ;
(PID.TID 0000.0001) saltVertAdvScheme =   /* Salt. Vert. Advection scheme selector */
(PID.TID 0000.0001)                       2
(PID.TID 0000.0001)     ;
(PID.TID 0000.0001) saltMultiDimAdvec =   /* use Muti-Dim Advec method for Salt */
(PID.TID 0000.0001)                   F
(PID.TID 0000.0001)     ;
(PID.TID 0000.0001) saltSOM_Advection = /* use 2nd Order Moment Advection for Salt */
(PID.TID 0000.0001)                   F
(PID.TID 0000.0001)     ;
(PID.TID 0000.0001) AdamsBashforthGs = /* apply Adams-Bashforth extrapolation on Gs */
(PID.TID 0000.0001)                   T
(PID.TID 0000.0001)     ;
(PID.TID 0000.0001) AdamsBashforth_S = /* apply Adams-Bashforth extrapolation on Salt */
(PID.TID 0000.0001)                   F
(PID.TID 0000.0001)     ;
(PID.TID 0000.0001) // ===================================
(PID.TID 0000.0001) ctrl-wet 1:    nvarlength =           25
(PID.TID 0000.0001) ctrl-wet 2: surface wet C =           25
(PID.TID 0000.0001) ctrl-wet 3: surface wet W =           25
(PID.TID 0000.0001) ctrl-wet 4: surface wet S =           25
(PID.TID 0000.0001) ctrl-wet 4a:surface wet V =            0
(PID.TID 0000.0001) ctrl-wet 5: 3D wet points =          100
(PID.TID 0000.0001) ctrl-wet 6: no recs for i =     1           0
(PID.TID 0000.0001) ctrl-wet 6: no recs for i =     2           0
(PID.TID 0000.0001) ctrl-wet 6: no recs for i =     3           0
(PID.TID 0000.0001) ctrl-wet 6: no recs for i =     4           0
(PID.TID 0000.0001) ctrl-wet 6: no recs for i =     5           0
(PID.TID 0000.0001) ctrl-wet 6: no recs for i =     6           0
(PID.TID 0000.0001) ctrl-wet 6: no recs for i =     7           0
(PID.TID 0000.0001) ctrl-wet 6: no recs for i =     8           0
(PID.TID 0000.0001) ctrl-wet 6: no recs for i =     9           0
(PID.TID 0000.0001) ctrl-wet 6: no recs for i =    10           0
(PID.TID 0000.0001) ctrl-wet 6: no recs for i =    11           0
(PID.TID 0000.0001) ctrl-wet 6: no recs for i =    12           0
(PID.TID 0000.0001) ctrl-wet 6: no recs for i =    13           0
(PID.TID 0000.0001) ctrl-wet 6: no recs for i =    14           0
(PID.TID 0000.0001) ctrl-wet 6: no recs for i =    15           0
(PID.TID 0000.0001) ctrl-wet 6: no recs for i =    16           0
(PID.TID 0000.0001) ctrl-wet 6: no recs for i =    17           0
(PID.TID 0000.0001) ctrl-wet 6: no recs for i =    18           0
(PID.TID 0000.0001) ctrl-wet 6: no recs for i =    19           0
(PID.TID 0000.0001) ctrl-wet 6: no recs for i =    20           1
(PID.TID 0000.0001) ctrl-wet 6: no recs for i =    21           0
(PID.TID 0000.0001) ctrl-wet 6: no recs for i =    22           0
(PID.TID 0000.0001) ctrl-wet 6: no recs for i =    23           0
(PID.TID 0000.0001) ctrl-wet 6: no recs for i =    24           0
(PID.TID 0000.0001) ctrl-wet 6: no recs for i =    25           0
(PID.TID 0000.0001) ctrl-wet 6: no recs for i =    26           0
(PID.TID 0000.0001) ctrl-wet 6: no recs for i =    27           0
(PID.TID 0000.0001) ctrl-wet 6: no recs for i =    28           0
(PID.TID 0000.0001) ctrl-wet 6: no recs for i =    29           0
(PID.TID 0000.0001) ctrl-wet 6: no recs for i =    30           0
(PID.TID 0000.0001) ctrl-wet 6: no recs for i =    31           0
(PID.TID 0000.0001) ctrl-wet 6: no recs for i =    32           0
(PID.TID 0000.0001) ctrl-wet 6: no recs for i =    33           0
(PID.TID 0000.0001) ctrl-wet 6: no recs for i =    34           0
(PID.TID 0000.0001) ctrl-wet 6: no recs for i =    35           0
(PID.TID 0000.0001) ctrl-wet 6: no recs for i =    36           0
(PID.TID 0000.0001) ctrl-wet 6: no recs for i =    37           0
(PID.TID 0000.0001) ctrl-wet 6: no recs for i =    38           0
(PID.TID 0000.0001) ctrl-wet 6: no recs for i =    39           0
(PID.TID 0000.0001) ctrl-wet 6: no recs for i =    40           0
(PID.TID 0000.0001) ctrl-wet 6: no recs for i =    41           0
(PID.TID 0000.0001) ctrl-wet 6: no recs for i =    42           0
(PID.TID 0000.0001) ctrl-wet 6: no recs for i =    43           0
(PID.TID 0000.0001) ctrl-wet 6: no recs for i =    44           0
(PID.TID 0000.0001) ctrl-wet 6: no recs for i =    45           0
(PID.TID 0000.0001) ctrl-wet 6: no recs for i =    46           0
(PID.TID 0000.0001) ctrl-wet 6: no recs for i =    47           0
(PID.TID 0000.0001) ctrl-wet 6: no recs for i =    48           0
(PID.TID 0000.0001) ctrl-wet 6: no recs for i =    49           0
(PID.TID 0000.0001) ctrl-wet 6: no recs for i =    50           0
(PID.TID 0000.0001) ctrl-wet 6: no recs for i =    51           0
(PID.TID 0000.0001) ctrl-wet 6: no recs for i =    52           0
(PID.TID 0000.0001) ctrl-wet 6: no recs for i =    53           0
(PID.TID 0000.0001) ctrl-wet 6: no recs for i =    54           0
(PID.TID 0000.0001) ctrl-wet 6: no recs for i =    55           0
(PID.TID 0000.0001) ctrl-wet 6: no recs for i =    56           0
(PID.TID 0000.0001) ctrl-wet 6: no recs for i =    57           0
(PID.TID 0000.0001) ctrl-wet 6: no recs for i =    58           0
(PID.TID 0000.0001) ctrl-wet 6: no recs for i =    59           0
(PID.TID 0000.0001) ctrl-wet 6: no recs for i =    60           0
(PID.TID 0000.0001) ctrl-wet 7: flux           200
(PID.TID 0000.0001) ctrl-wet 8: atmos          200
(PID.TID 0000.0001) ctrl-wet -------------------------------------------------
(PID.TID 0000.0001) ctrl-wet 13: global nvarlength for Nr =    4          25
(PID.TID 0000.0001) ctrl-wet -------------------------------------------------
(PID.TID 0000.0001) ctrl-wet 14: global nWet C/S/W/V k=    1          25          25          25           0
(PID.TID 0000.0001) ctrl-wet 14: global nWet C/S/W/V k=    2          25          25          25           0
(PID.TID 0000.0001) ctrl-wet 14: global nWet C/S/W/V k=    3          25          25          25           0
(PID.TID 0000.0001) ctrl-wet 14: global nWet C/S/W/V k=    4          25          25          25           0
(PID.TID 0000.0001) ctrl-wet -------------------------------------------------
(PID.TID 0000.0001) ctrl-wet -------------------------------------------------
(PID.TID 0000.0001) ctrl-wet -------------------------------------------------
(PID.TID 0000.0001) ctrl_init: no. of control variables:            1
(PID.TID 0000.0001) ctrl_init: control vector length:              25
(PID.TID 0000.0001) %MON fCori_max                    =  -1.0735540000000E-04
(PID.TID 0000.0001) %MON fCori_min                    =  -1.1783060000000E-04
(PID.TID 0000.0001) %MON fCori_mean                   =  -1.1259300000000E-04
(PID.TID 0000.0001) %MON fCori_sd                     =   3.7035424771427E-06
(PID.TID 0000.0001) %MON fCoriG_max                   =  -1.0866480000000E-04
(PID.TID 0000.0001) %MON fCoriG_min                   =  -1.1914000000000E-04
(PID.TID 0000.0001) %MON fCoriG_mean                  =  -1.1390240000000E-04
(PID.TID 0000.0001) %MON fCoriG_sd                    =   3.7035424771427E-06
(PID.TID 0000.0001) %MON fCoriCos_max                 =   0.0000000000000E+00
(PID.TID 0000.0001) %MON fCoriCos_min                 =   0.0000000000000E+00
(PID.TID 0000.0001) %MON fCoriCos_mean                =   0.0000000000000E+00
(PID.TID 0000.0001) %MON fCoriCos_sd                  =   0.0000000000000E+00
(PID.TID 0000.0001) INI_CG2D: CG2D normalisation factor =  1.9999999999999996E-04
(PID.TID 0000.0001) 
(PID.TID 0000.0001) // =======================================================
(PID.TID 0000.0001) // Model configuration
(PID.TID 0000.0001) // =======================================================
(PID.TID 0000.0001) //
(PID.TID 0000.0001) // "Physical" paramters ( PARM01 in namelist )
(PID.TID 0000.0001) //
(PID.TID 0000.0001) buoyancyRelation = /* Type of relation to get Buoyancy */
(PID.TID 0000.0001)               'OCEANIC'
(PID.TID 0000.0001)     ;
(PID.TID 0000.0001) fluidIsAir  =  /* fluid major constituent is Air */
(PID.TID 0000.0001)                   F
(PID.TID 0000.0001)     ;
(PID.TID 0000.0001) fluidIsWater=  /* fluid major constituent is Water */
(PID.TID 0000.0001)                   T
(PID.TID 0000.0001)     ;
(PID.TID 0000.0001) usingPCoords =  /* use p (or p*) vertical coordinate */
(PID.TID 0000.0001)                   F
(PID.TID 0000.0001)     ;
(PID.TID 0000.0001) usingZCoords =  /* use z (or z*) vertical coordinate */
(PID.TID 0000.0001)                   T
(PID.TID 0000.0001)     ;
(PID.TID 0000.0001) tRef =   /* Reference temperature profile ( oC or K ) */
(PID.TID 0000.0001)     4 @  4.000000000000000E+00              /* K =  1:  4 */
(PID.TID 0000.0001)     ;
(PID.TID 0000.0001) sRef =   /* Reference salinity profile ( psu ) */
(PID.TID 0000.0001)     4 @  3.500000000000000E+01              /* K =  1:  4 */
(PID.TID 0000.0001)     ;
(PID.TID 0000.0001) viscAh =   /* Lateral eddy viscosity ( m^2/s ) */
(PID.TID 0000.0001)                 1.000000000000000E+05
(PID.TID 0000.0001)     ;
(PID.TID 0000.0001) viscAhMax =   /* Maximum lateral eddy viscosity ( m^2/s ) */
(PID.TID 0000.0001)                 1.000000000000000E+21
(PID.TID 0000.0001)     ;
(PID.TID 0000.0001) viscAhGrid =   /* Grid dependent lateral eddy viscosity ( non-dim. ) */
(PID.TID 0000.0001)                 0.000000000000000E+00
(PID.TID 0000.0001)     ;
(PID.TID 0000.0001) useFullLeith =   /* Use Full Form of Leith Viscosity on/off flag*/
(PID.TID 0000.0001)                   F
(PID.TID 0000.0001)     ;
(PID.TID 0000.0001) useStrainTensionVisc =   /* Use StrainTension Form of Viscous Operator on/off flag*/
(PID.TID 0000.0001)                   F
(PID.TID 0000.0001)     ;
(PID.TID 0000.0001) useAreaViscLength =   /* Use area for visc length instead of geom. mean*/
(PID.TID 0000.0001)                   F
(PID.TID 0000.0001)     ;
(PID.TID 0000.0001) viscC2leith = /* Leith harmonic visc. factor (on grad(vort),non-dim.) */
(PID.TID 0000.0001)                 0.000000000000000E+00
(PID.TID 0000.0001)     ;
(PID.TID 0000.0001) viscC2leithD = /* Leith harmonic viscosity factor (on grad(div),non-dim.) */
(PID.TID 0000.0001)                 0.000000000000000E+00
(PID.TID 0000.0001)     ;
(PID.TID 0000.0001) viscC2smag =   /* Smagorinsky harmonic viscosity factor (non-dim.) */
(PID.TID 0000.0001)                 0.000000000000000E+00
(PID.TID 0000.0001)     ;
(PID.TID 0000.0001) viscA4 =   /* Lateral biharmonic viscosity ( m^4/s ) */
(PID.TID 0000.0001)                 0.000000000000000E+00
(PID.TID 0000.0001)     ;
(PID.TID 0000.0001) viscA4Max =   /* Maximum biharmonic viscosity ( m^2/s ) */
(PID.TID 0000.0001)                 1.000000000000000E+21
(PID.TID 0000.0001)     ;
(PID.TID 0000.0001) viscA4Grid =   /* Grid dependent biharmonic viscosity ( non-dim. ) */
(PID.TID 0000.0001)                 0.000000000000000E+00
(PID.TID 0000.0001)     ;
(PID.TID 0000.0001) viscC4leith = /* Leith biharm viscosity factor (on grad(vort), non-dim.) */
(PID.TID 0000.0001)                 0.000000000000000E+00
(PID.TID 0000.0001)     ;
(PID.TID 0000.0001) viscC4leithD = /* Leith biharm viscosity factor (on grad(div), non-dim.) */
(PID.TID 0000.0001)                 0.000000000000000E+00
(PID.TID 0000.0001)     ;
(PID.TID 0000.0001) viscC4Smag = /* Smagorinsky biharm viscosity factor (non-dim) */
(PID.TID 0000.0001)                 0.000000000000000E+00
(PID.TID 0000.0001)     ;
(PID.TID 0000.0001) no_slip_sides =  /* Viscous BCs: No-slip sides */
(PID.TID 0000.0001)                   F
(PID.TID 0000.0001)     ;
(PID.TID 0000.0001) sideDragFactor = /* side-drag scaling factor (non-dim) */
(PID.TID 0000.0001)                 2.000000000000000E+00
(PID.TID 0000.0001)     ;
(PID.TID 0000.0001) viscAr =   /* Vertical eddy viscosity ( m^2/s ) */
(PID.TID 0000.0001)                 1.000000000000000E-01
(PID.TID 0000.0001)     ;
(PID.TID 0000.0001) no_slip_bottom =  /* Viscous BCs: No-slip bottom */
(PID.TID 0000.0001)                   T
(PID.TID 0000.0001)     ;
(PID.TID 0000.0001) bottomDragLinear = /* linear bottom-drag coefficient ( m/s ) */
(PID.TID 0000.0001)                 0.000000000000000E+00
(PID.TID 0000.0001)     ;
(PID.TID 0000.0001) bottomDragQuadratic = /* quadratic bottom-drag coefficient (-) */
(PID.TID 0000.0001)                 0.000000000000000E+00
(PID.TID 0000.0001)     ;
(PID.TID 0000.0001) diffKhT =   /* Laplacian diffusion of heat laterally ( m^2/s ) */
(PID.TID 0000.0001)                 4.000000000000000E+02
(PID.TID 0000.0001)     ;
(PID.TID 0000.0001) diffK4T =   /* Biharmonic diffusion of heat laterally ( m^4/s ) */
(PID.TID 0000.0001)                 0.000000000000000E+00
(PID.TID 0000.0001)     ;
(PID.TID 0000.0001) diffKhS =   /* Laplacian diffusion of salt laterally ( m^2/s ) */
(PID.TID 0000.0001)                 0.000000000000000E+00
(PID.TID 0000.0001)     ;
(PID.TID 0000.0001) diffK4S =   /* Biharmonic diffusion of salt laterally ( m^4/s ) */
(PID.TID 0000.0001)                 0.000000000000000E+00
(PID.TID 0000.0001)     ;
(PID.TID 0000.0001) diffKrNrT = /* vertical profile of vertical diffusion of Temp ( m^2/s )*/
(PID.TID 0000.0001)     4 @  1.000000000000000E-04              /* K =  1:  4 */
(PID.TID 0000.0001)     ;
(PID.TID 0000.0001) diffKrNrS = /* vertical profile of vertical diffusion of Salt ( m^2/s )*/
(PID.TID 0000.0001)     4 @  3.000000000000000E-05              /* K =  1:  4 */
(PID.TID 0000.0001)     ;
(PID.TID 0000.0001) diffKrBL79surf = /* Surface diffusion for Bryan and Lewis 79 ( m^2/s ) */
(PID.TID 0000.0001)                 0.000000000000000E+00
(PID.TID 0000.0001)     ;
(PID.TID 0000.0001) diffKrBL79deep = /* Deep diffusion for Bryan and Lewis 1979 ( m^2/s ) */
(PID.TID 0000.0001)                 0.000000000000000E+00
(PID.TID 0000.0001)     ;
(PID.TID 0000.0001) diffKrBL79scl = /* Depth scale for Bryan and Lewis 1979 ( m ) */
(PID.TID 0000.0001)                 2.000000000000000E+02
(PID.TID 0000.0001)     ;
(PID.TID 0000.0001) diffKrBL79Ho = /* Turning depth for Bryan and Lewis 1979 ( m ) */
(PID.TID 0000.0001)                -2.000000000000000E+03
(PID.TID 0000.0001)     ;
(PID.TID 0000.0001) ivdc_kappa = /* Implicit Vertical Diffusivity for Convection ( m^2/s ) */
(PID.TID 0000.0001)                 0.000000000000000E+00
(PID.TID 0000.0001)     ;
(PID.TID 0000.0001) hMixCriteria=  /* Criteria for mixed-layer diagnostic */
(PID.TID 0000.0001)                -8.000000000000000E-01
(PID.TID 0000.0001)     ;
(PID.TID 0000.0001) dRhoSmall=  /* Parameter for mixed-layer diagnostic */
(PID.TID 0000.0001)                 1.000000000000000E-06
(PID.TID 0000.0001)     ;
(PID.TID 0000.0001) hMixSmooth=  /* Smoothing parameter for mixed-layer diagnostic */
(PID.TID 0000.0001)                 0.000000000000000E+00
(PID.TID 0000.0001)     ;
(PID.TID 0000.0001) eosType =  /* Type of Equation of State */
(PID.TID 0000.0001)               'LINEAR'
(PID.TID 0000.0001)     ;
(PID.TID 0000.0001) tAlpha =   /* Linear EOS thermal expansion coefficient ( 1/oC ) */
(PID.TID 0000.0001)                 2.000000000000000E-04
(PID.TID 0000.0001)     ;
(PID.TID 0000.0001) sBeta =   /* Linear EOS haline contraction coefficient ( 1/psu ) */
(PID.TID 0000.0001)                 0.000000000000000E+00
(PID.TID 0000.0001)     ;
(PID.TID 0000.0001) rhonil =   /* Reference density ( kg/m^3 ) */
(PID.TID 0000.0001)                 9.998000000000000E+02
(PID.TID 0000.0001)     ;
(PID.TID 0000.0001) rhoConst =   /* Reference density ( kg/m^3 ) */
(PID.TID 0000.0001)                 9.998000000000000E+02
(PID.TID 0000.0001)     ;
(PID.TID 0000.0001) rhoFacC = /* normalized Reference density @ cell-Center (-) */
(PID.TID 0000.0001)     4 @  1.000000000000000E+00              /* K =  1:  4 */
(PID.TID 0000.0001)     ;
(PID.TID 0000.0001) rhoFacF = /* normalized Reference density @ W-Interface (-) */
(PID.TID 0000.0001)     5 @  1.000000000000000E+00              /* K =  1:  5 */
(PID.TID 0000.0001)     ;
(PID.TID 0000.0001) rhoConstFresh =   /* Reference density ( kg/m^3 ) */
(PID.TID 0000.0001)                 9.998000000000000E+02
(PID.TID 0000.0001)     ;
(PID.TID 0000.0001) gravity =   /* Gravitational acceleration ( m/s^2 ) */
(PID.TID 0000.0001)                 9.810000000000000E+00
(PID.TID 0000.0001)     ;
(PID.TID 0000.0001) gBaro =   /* Barotropic gravity ( m/s^2 ) */
(PID.TID 0000.0001)                 9.810000000000000E+00
(PID.TID 0000.0001)     ;
(PID.TID 0000.0001) rotationPeriod =   /* Rotation Period ( s ) */
(PID.TID 0000.0001)                 8.616400000000000E+04
(PID.TID 0000.0001)     ;
(PID.TID 0000.0001) omega =   /* Angular velocity ( rad/s ) */
(PID.TID 0000.0001)                 7.292123516990375E-05
(PID.TID 0000.0001)     ;
(PID.TID 0000.0001) f0 =   /* Reference coriolis parameter ( 1/s ) */
(PID.TID 0000.0001)                -1.191400000000000E-04
(PID.TID 0000.0001)     ;
(PID.TID 0000.0001) beta =   /* Beta ( 1/(m.s) ) */
(PID.TID 0000.0001)                 1.309400000000000E-11
(PID.TID 0000.0001)     ;
(PID.TID 0000.0001) freeSurfFac =   /* Implicit free surface factor */
(PID.TID 0000.0001)                 1.000000000000000E+00
(PID.TID 0000.0001)     ;
(PID.TID 0000.0001) implicitFreeSurface =   /* Implicit free surface on/off flag */
(PID.TID 0000.0001)                   T
(PID.TID 0000.0001)     ;
(PID.TID 0000.0001) rigidLid =   /* Rigid lid on/off flag */
(PID.TID 0000.0001)                   F
(PID.TID 0000.0001)     ;
(PID.TID 0000.0001) implicSurfPress =   /* Surface Pressure implicit factor (0-1)*/
(PID.TID 0000.0001)                 1.000000000000000E+00
(PID.TID 0000.0001)     ;
(PID.TID 0000.0001) implicDiv2Dflow =   /* Barot. Flow Div. implicit factor (0-1)*/
(PID.TID 0000.0001)                 1.000000000000000E+00
(PID.TID 0000.0001)     ;
(PID.TID 0000.0001) exactConserv =   /* Exact Volume Conservation on/off flag*/
(PID.TID 0000.0001)                   F
(PID.TID 0000.0001)     ;
(PID.TID 0000.0001) linFSConserveTr =   /* Tracer correction for Lin Free Surface on/off flag*/
(PID.TID 0000.0001)                   F
(PID.TID 0000.0001)     ;
(PID.TID 0000.0001) uniformLin_PhiSurf =   /* use uniform Bo_surf on/off flag*/
(PID.TID 0000.0001)                   T
(PID.TID 0000.0001)     ;
(PID.TID 0000.0001) nonlinFreeSurf =   /* Non-linear Free Surf. options (-1,0,1,2,3)*/
(PID.TID 0000.0001)                       0
(PID.TID 0000.0001)     ;
(PID.TID 0000.0001)      -1,0= Off ; 1,2,3= On, 2=+rescale gU,gV, 3=+update cg2d solv.
(PID.TID 0000.0001) hFacInf =   /* lower threshold for hFac (nonlinFreeSurf only)*/
(PID.TID 0000.0001)                 2.000000000000000E-01
(PID.TID 0000.0001)     ;
(PID.TID 0000.0001) hFacSup =   /* upper threshold for hFac (nonlinFreeSurf only)*/
(PID.TID 0000.0001)                 2.000000000000000E+00
(PID.TID 0000.0001)     ;
(PID.TID 0000.0001) select_rStar = /* r* Vertical coord. options (=0 r coord.; > 0 uses r*) */
(PID.TID 0000.0001)                       0
(PID.TID 0000.0001)     ;
(PID.TID 0000.0001) selectAddFluid = /* option for mass source/sink of fluid (=0: off) */
(PID.TID 0000.0001)                       0
(PID.TID 0000.0001)     ;
(PID.TID 0000.0001) useRealFreshWaterFlux = /* Real Fresh Water Flux on/off flag*/
(PID.TID 0000.0001)                   F
(PID.TID 0000.0001)     ;
(PID.TID 0000.0001) temp_EvPrRn = /* Temp. of Evap/Prec/R (UNSET=use local T)(oC)*/
(PID.TID 0000.0001)                 1.234567000000000E+05
(PID.TID 0000.0001)     ;
(PID.TID 0000.0001) salt_EvPrRn = /* Salin. of Evap/Prec/R (UNSET=use local S)(ppt)*/
(PID.TID 0000.0001)                 0.000000000000000E+00
(PID.TID 0000.0001)     ;
(PID.TID 0000.0001) convertFW2Salt = /* convert F.W. Flux to Salt Flux (-1=use local S)(ppt)*/
(PID.TID 0000.0001)                 3.500000000000000E+01
(PID.TID 0000.0001)     ;
(PID.TID 0000.0001) use3Dsolver = /* use 3-D pressure solver on/off flag */
(PID.TID 0000.0001)                   F
(PID.TID 0000.0001)     ;
(PID.TID 0000.0001) nonHydrostatic =  /* Non-Hydrostatic on/off flag */
(PID.TID 0000.0001)                   F
(PID.TID 0000.0001)     ;
(PID.TID 0000.0001) nh_Am2 = /* Non-Hydrostatic terms scaling factor */
(PID.TID 0000.0001)                 1.000000000000000E+00
(PID.TID 0000.0001)     ;
(PID.TID 0000.0001) quasiHydrostatic = /* Quasi-Hydrostatic on/off flag */
(PID.TID 0000.0001)                   F
(PID.TID 0000.0001)     ;
(PID.TID 0000.0001) momStepping =  /* Momentum equation on/off flag */
(PID.TID 0000.0001)                   T
(PID.TID 0000.0001)     ;
(PID.TID 0000.0001) vectorInvariantMomentum= /* Vector-Invariant Momentum on/off */
(PID.TID 0000.0001)                   F
(PID.TID 0000.0001)     ;
(PID.TID 0000.0001) momAdvection =  /* Momentum advection on/off flag */
(PID.TID 0000.0001)                   T
(PID.TID 0000.0001)     ;
(PID.TID 0000.0001) momViscosity =  /* Momentum viscosity on/off flag */
(PID.TID 0000.0001)                   T
(PID.TID 0000.0001)     ;
(PID.TID 0000.0001) momImplVertAdv =/* Momentum implicit vert. advection on/off*/
(PID.TID 0000.0001)                   F
(PID.TID 0000.0001)     ;
(PID.TID 0000.0001) implicitViscosity = /* Implicit viscosity on/off flag */
(PID.TID 0000.0001)                   F
(PID.TID 0000.0001)     ;
(PID.TID 0000.0001) metricTerms =  /* metric-Terms on/off flag */
(PID.TID 0000.0001)                   F
(PID.TID 0000.0001)     ;
(PID.TID 0000.0001) useNHMTerms = /* Non-Hydrostatic Metric-Terms on/off */
(PID.TID 0000.0001)                   F
(PID.TID 0000.0001)     ;
(PID.TID 0000.0001) useConstantF =  /* use Constant f0 Coriolis flag */
(PID.TID 0000.0001)                   F
(PID.TID 0000.0001)     ;
(PID.TID 0000.0001) useBetaPlaneF = /* use Beta-Plane Coriolis flag */
(PID.TID 0000.0001)                   T
(PID.TID 0000.0001)     ;
(PID.TID 0000.0001) useSphereF  =   /* use Spherical Coriolis flag */
(PID.TID 0000.0001)                   F
(PID.TID 0000.0001)     ;
(PID.TID 0000.0001) use3dCoriolis = /* 3-D Coriolis on/off flag */
(PID.TID 0000.0001)                   F
(PID.TID 0000.0001)     ;
(PID.TID 0000.0001) useCoriolis =  /* Coriolis on/off flag */
(PID.TID 0000.0001)                   T
(PID.TID 0000.0001)     ;
(PID.TID 0000.0001) useCDscheme =  /* CD scheme on/off flag */
(PID.TID 0000.0001)                   F
(PID.TID 0000.0001)     ;
(PID.TID 0000.0001) useJamartWetPoints= /* Coriolis WetPoints method flag */
(PID.TID 0000.0001)                   F
(PID.TID 0000.0001)     ;
(PID.TID 0000.0001) useJamartMomAdv= /* V.I. Non-linear terms Jamart flag */
(PID.TID 0000.0001)                   F
(PID.TID 0000.0001)     ;
(PID.TID 0000.0001) useAbsVorticity= /* Work with f+zeta in Coriolis */
(PID.TID 0000.0001)                   F
(PID.TID 0000.0001)     ;
(PID.TID 0000.0001) selectVortScheme= /* Scheme selector for Vorticity-Term */
(PID.TID 0000.0001)               123456789
(PID.TID 0000.0001)    = 0 : enstrophy (Shallow-Water Eq.) conserving scheme by Sadourny, JAS 75
(PID.TID 0000.0001)    = 1 : same as 0 with modified hFac
(PID.TID 0000.0001)    = 2 : energy conserving scheme (used by Sadourny in JAS 75 paper)
(PID.TID 0000.0001)    = 3 : energy (general) and enstrophy (2D, nonDiv.) conserving scheme
(PID.TID 0000.0001)          from Sadourny (Burridge & Haseler, ECMWF Rep.4, 1977)
(PID.TID 0000.0001)     ;
(PID.TID 0000.0001) upwindVorticity= /* Upwind bias vorticity flag */
(PID.TID 0000.0001)                   F
(PID.TID 0000.0001)     ;
(PID.TID 0000.0001) highOrderVorticity= /* High order interp. of vort. flag */
(PID.TID 0000.0001)                   F
(PID.TID 0000.0001)     ;
(PID.TID 0000.0001) upwindShear= /* Upwind vertical Shear advection flag */
(PID.TID 0000.0001)                   F
(PID.TID 0000.0001)     ;
(PID.TID 0000.0001) selectKEscheme= /* Kinetic Energy scheme selector */
(PID.TID 0000.0001)                       0
(PID.TID 0000.0001)     ;
(PID.TID 0000.0001) momForcing =  /* Momentum forcing on/off flag */
(PID.TID 0000.0001)                   T
(PID.TID 0000.0001)     ;
(PID.TID 0000.0001) momPressureForcing =  /* Momentum pressure term on/off flag */
(PID.TID 0000.0001)                   T
(PID.TID 0000.0001)     ;
(PID.TID 0000.0001) implicitIntGravWave= /* Implicit Internal Gravity Wave flag */
(PID.TID 0000.0001)                   F
(PID.TID 0000.0001)     ;
(PID.TID 0000.0001) staggerTimeStep =   /* Stagger time stepping on/off flag */
(PID.TID 0000.0001)                   F
(PID.TID 0000.0001)     ;
(PID.TID 0000.0001) multiDimAdvection =   /* enable/disable Multi-Dim Advection */
(PID.TID 0000.0001)                   T
(PID.TID 0000.0001)     ;
(PID.TID 0000.0001) useMultiDimAdvec =   /* Multi-Dim Advection is/is-not used */
(PID.TID 0000.0001)                   F
(PID.TID 0000.0001)     ;
(PID.TID 0000.0001) implicitDiffusion =/* Implicit Diffusion on/off flag */
(PID.TID 0000.0001)                   F
(PID.TID 0000.0001)     ;
(PID.TID 0000.0001) tempStepping =  /* Temperature equation on/off flag */
(PID.TID 0000.0001)                   T
(PID.TID 0000.0001)     ;
(PID.TID 0000.0001) tempAdvection=  /* Temperature advection on/off flag */
(PID.TID 0000.0001)                   T
(PID.TID 0000.0001)     ;
(PID.TID 0000.0001) tempImplVertAdv =/* Temp. implicit vert. advection on/off */
(PID.TID 0000.0001)                   F
(PID.TID 0000.0001)     ;
(PID.TID 0000.0001) tempForcing  =  /* Temperature forcing on/off flag */
(PID.TID 0000.0001)                   T
(PID.TID 0000.0001)     ;
(PID.TID 0000.0001) tempIsActiveTr = /* Temp. is a dynamically Active Tracer */
(PID.TID 0000.0001)                   T
(PID.TID 0000.0001)     ;
(PID.TID 0000.0001) saltStepping =  /* Salinity equation on/off flag */
(PID.TID 0000.0001)                   T
(PID.TID 0000.0001)     ;
(PID.TID 0000.0001) saltAdvection=  /* Salinity advection on/off flag */
(PID.TID 0000.0001)                   T
(PID.TID 0000.0001)     ;
(PID.TID 0000.0001) saltImplVertAdv =/* Sali. implicit vert. advection on/off */
(PID.TID 0000.0001)                   F
(PID.TID 0000.0001)     ;
(PID.TID 0000.0001) saltForcing  =  /* Salinity forcing on/off flag */
(PID.TID 0000.0001)                   T
(PID.TID 0000.0001)     ;
(PID.TID 0000.0001) saltIsActiveTr = /* Salt  is a dynamically Active Tracer */
(PID.TID 0000.0001)                   F
(PID.TID 0000.0001)     ;
(PID.TID 0000.0001)  readBinaryPrec = /* Precision used for reading binary files */
(PID.TID 0000.0001)                      64
(PID.TID 0000.0001)     ;
(PID.TID 0000.0001) writeBinaryPrec = /* Precision used for writing binary files */
(PID.TID 0000.0001)                      64
(PID.TID 0000.0001)     ;
(PID.TID 0000.0001)  globalFiles = /* write "global" (=not per tile) files */
(PID.TID 0000.0001)                   F
(PID.TID 0000.0001)     ;
(PID.TID 0000.0001)  useSingleCpuIO = /* only master MPI process does I/O */
(PID.TID 0000.0001)                   F
(PID.TID 0000.0001)     ;
(PID.TID 0000.0001)  debugMode  =  /* Debug Mode on/off flag */
(PID.TID 0000.0001)                   F
(PID.TID 0000.0001)     ;
(PID.TID 0000.0001)    debLevA  =  /* 1rst level of debugging */
(PID.TID 0000.0001)                       1
(PID.TID 0000.0001)     ;
(PID.TID 0000.0001)    debLevB  =  /* 2nd  level of debugging */
(PID.TID 0000.0001)                       2
(PID.TID 0000.0001)     ;
(PID.TID 0000.0001)  debugLevel =  /* select debugging level */
(PID.TID 0000.0001)                       1
(PID.TID 0000.0001)     ;
(PID.TID 0000.0001) //
(PID.TID 0000.0001) // Elliptic solver(s) paramters ( PARM02 in namelist )
(PID.TID 0000.0001) //
(PID.TID 0000.0001) cg2dMaxIters =   /* Upper limit on 2d con. grad iterations  */
(PID.TID 0000.0001)                     100
(PID.TID 0000.0001)     ;
(PID.TID 0000.0001) cg2dChkResFreq =   /* 2d con. grad convergence test frequency */
(PID.TID 0000.0001)                       1
(PID.TID 0000.0001)     ;
(PID.TID 0000.0001) cg2dTargetResidual =   /* 2d con. grad target residual  */
(PID.TID 0000.0001)                 1.000000000000000E-13
(PID.TID 0000.0001)     ;
(PID.TID 0000.0001) cg2dTargetResWunit =   /* CG2d target residual [W units] */
(PID.TID 0000.0001)                -1.000000000000000E+00
(PID.TID 0000.0001)     ;
(PID.TID 0000.0001) cg2dPreCondFreq =   /* Freq. for updating cg2d preconditioner */
(PID.TID 0000.0001)                       1
(PID.TID 0000.0001)     ;
(PID.TID 0000.0001) //
(PID.TID 0000.0001) // Time stepping paramters ( PARM03 in namelist )
(PID.TID 0000.0001) //
(PID.TID 0000.0001) deltaTmom =   /* Momentum equation timestep ( s ) */
(PID.TID 0000.0001)                 3.600000000000000E+03
(PID.TID 0000.0001)     ;
(PID.TID 0000.0001) deltaTfreesurf =   /* FreeSurface equation timestep ( s ) */
(PID.TID 0000.0001)                 3.600000000000000E+03
(PID.TID 0000.0001)     ;
(PID.TID 0000.0001) dTtracerLev =   /* Tracer equation timestep ( s ) */
(PID.TID 0000.0001)     4 @  3.600000000000000E+03              /* K =  1:  4 */
(PID.TID 0000.0001)     ;
(PID.TID 0000.0001) deltaTClock  =   /* Model clock timestep ( s ) */
(PID.TID 0000.0001)                 3.600000000000000E+03
(PID.TID 0000.0001)     ;
(PID.TID 0000.0001) cAdjFreq =   /* Convective adjustment interval ( s ) */
(PID.TID 0000.0001)                 0.000000000000000E+00
(PID.TID 0000.0001)     ;
(PID.TID 0000.0001) momForcingOutAB = /* =1: take Momentum Forcing out of Adams-Bash. stepping */
(PID.TID 0000.0001)                       0
(PID.TID 0000.0001)     ;
(PID.TID 0000.0001) tracForcingOutAB = /* =1: take T,S,pTr Forcing out of Adams-Bash. stepping */
(PID.TID 0000.0001)                       0
(PID.TID 0000.0001)     ;
(PID.TID 0000.0001) momDissip_In_AB = /* put Dissipation Tendency in Adams-Bash. stepping */
(PID.TID 0000.0001)                   T
(PID.TID 0000.0001)     ;
(PID.TID 0000.0001) doAB_onGtGs = /* apply AB on Tendencies (rather than on T,S)*/
(PID.TID 0000.0001)                   T
(PID.TID 0000.0001)     ;
(PID.TID 0000.0001) abEps =   /* Adams-Bashforth-2 stabilizing weight */
(PID.TID 0000.0001)                 1.000000000000000E-01
(PID.TID 0000.0001)     ;
(PID.TID 0000.0001) pickupStrictlyMatch= /* stop if pickup do not strictly match */
(PID.TID 0000.0001)                   T
(PID.TID 0000.0001)     ;
(PID.TID 0000.0001) nIter0 =   /* Run starting timestep number  */
(PID.TID 0000.0001)                       0
(PID.TID 0000.0001)     ;
(PID.TID 0000.0001) nTimeSteps =   /* Number of timesteps */
(PID.TID 0000.0001)                     100
(PID.TID 0000.0001)     ;
(PID.TID 0000.0001) baseTime =   /* Model base time ( s ). */
(PID.TID 0000.0001)                 0.000000000000000E+00
(PID.TID 0000.0001)     ;
(PID.TID 0000.0001) startTime =   /* Run start time ( s ). */
(PID.TID 0000.0001)                 0.000000000000000E+00
(PID.TID 0000.0001)     ;
(PID.TID 0000.0001) endTime =   /* Integration ending time ( s ). */
(PID.TID 0000.0001)                 3.600000000000000E+05
(PID.TID 0000.0001)     ;
(PID.TID 0000.0001) pChkPtFreq =   /* Permanent restart/checkpoint file interval ( s ). */
(PID.TID 0000.0001)                 7.776000000000000E+06
(PID.TID 0000.0001)     ;
(PID.TID 0000.0001) chkPtFreq =   /* Rolling restart/checkpoint file interval ( s ). */
(PID.TID 0000.0001)                 0.000000000000000E+00
(PID.TID 0000.0001)     ;
(PID.TID 0000.0001) pickup_write_mdsio =   /* Model IO flag. */
(PID.TID 0000.0001)                   T
(PID.TID 0000.0001)     ;
(PID.TID 0000.0001) pickup_read_mdsio =   /* Model IO flag. */
(PID.TID 0000.0001)                   T
(PID.TID 0000.0001)     ;
(PID.TID 0000.0001) pickup_write_mnc =   /* Model IO flag. */
(PID.TID 0000.0001)                   F
(PID.TID 0000.0001)     ;
(PID.TID 0000.0001) pickup_read_mnc =   /* Model IO flag. */
(PID.TID 0000.0001)                   F
(PID.TID 0000.0001)     ;
(PID.TID 0000.0001) pickup_write_immed =   /* Model IO flag. */
(PID.TID 0000.0001)                   F
(PID.TID 0000.0001)     ;
(PID.TID 0000.0001) writePickupAtEnd =   /* Model IO flag. */
(PID.TID 0000.0001)                   T
(PID.TID 0000.0001)     ;
(PID.TID 0000.0001) dumpFreq =   /* Model state write out interval ( s ). */
(PID.TID 0000.0001)                 0.000000000000000E+00
(PID.TID 0000.0001)     ;
(PID.TID 0000.0001) dumpInitAndLast= /* write out Initial & Last iter. model state */
(PID.TID 0000.0001)                   T
(PID.TID 0000.0001)     ;
(PID.TID 0000.0001) snapshot_mdsio =   /* Model IO flag. */
(PID.TID 0000.0001)                   T
(PID.TID 0000.0001)     ;
(PID.TID 0000.0001) snapshot_mnc =   /* Model IO flag. */
(PID.TID 0000.0001)                   F
(PID.TID 0000.0001)     ;
(PID.TID 0000.0001) monitorFreq =   /* Monitor output interval ( s ). */
(PID.TID 0000.0001)                 1.000000000000000E+00
(PID.TID 0000.0001)     ;
(PID.TID 0000.0001) monitorSelect = /* select group of variables to monitor */
(PID.TID 0000.0001)                       3
(PID.TID 0000.0001)     ;
(PID.TID 0000.0001) monitor_stdio =   /* Model IO flag. */
(PID.TID 0000.0001)                   T
(PID.TID 0000.0001)     ;
(PID.TID 0000.0001) monitor_mnc =   /* Model IO flag. */
(PID.TID 0000.0001)                   F
(PID.TID 0000.0001)     ;
(PID.TID 0000.0001) externForcingPeriod =   /* forcing period (s) */
(PID.TID 0000.0001)                 0.000000000000000E+00
(PID.TID 0000.0001)     ;
(PID.TID 0000.0001) externForcingCycle =   /* period of the cyle (s). */
(PID.TID 0000.0001)                 0.000000000000000E+00
(PID.TID 0000.0001)     ;
(PID.TID 0000.0001) tauThetaClimRelax =   /* relaxation time scale (s) */
(PID.TID 0000.0001)                 0.000000000000000E+00
(PID.TID 0000.0001)     ;
(PID.TID 0000.0001) tauSaltClimRelax =   /* relaxation time scale (s) */
(PID.TID 0000.0001)                 0.000000000000000E+00
(PID.TID 0000.0001)     ;
(PID.TID 0000.0001) latBandClimRelax =   /* max. Lat. where relaxation */
(PID.TID 0000.0001)                 3.000000000000000E+06
(PID.TID 0000.0001)     ;
(PID.TID 0000.0001) //
(PID.TID 0000.0001) // Gridding paramters ( PARM04 in namelist )
(PID.TID 0000.0001) //
(PID.TID 0000.0001) usingCartesianGrid = /* Cartesian coordinates flag ( True/False ) */
(PID.TID 0000.0001)                   T
(PID.TID 0000.0001)     ;
(PID.TID 0000.0001) usingCylindricalGrid = /* Cylindrical coordinates flag ( True/False ) */
(PID.TID 0000.0001)                   F
(PID.TID 0000.0001)     ;
(PID.TID 0000.0001) usingSphericalPolarGrid = /* Spherical coordinates flag ( True/False ) */
(PID.TID 0000.0001)                   F
(PID.TID 0000.0001)     ;
(PID.TID 0000.0001) usingCurvilinearGrid = /* Curvilinear coordinates flag ( True/False ) */
(PID.TID 0000.0001)                   F
(PID.TID 0000.0001)     ;
(PID.TID 0000.0001) Ro_SeaLevel = /* r(1) ( units of r ==  m ) */
(PID.TID 0000.0001)                 0.000000000000000E+00
(PID.TID 0000.0001)     ;
(PID.TID 0000.0001) rkSign =   /* index orientation relative to vertical coordinate */
(PID.TID 0000.0001)                -1.000000000000000E+00
(PID.TID 0000.0001)     ;
(PID.TID 0000.0001) gravitySign = /* gravity orientation relative to vertical coordinate */
(PID.TID 0000.0001)                -1.000000000000000E+00
(PID.TID 0000.0001)     ;
(PID.TID 0000.0001) mass2rUnit = /* convert mass per unit area [kg/m2] to r-units [m] */
(PID.TID 0000.0001)                 1.000200040008002E-03
(PID.TID 0000.0001)     ;
(PID.TID 0000.0001) rUnit2mass = /* convert r-units [m] to mass per unit area [kg/m2] */
(PID.TID 0000.0001)                 9.998000000000000E+02
(PID.TID 0000.0001)     ;
(PID.TID 0000.0001) drC =   /* C spacing ( units of r ) */
(PID.TID 0000.0001)                 5.000000000000000E+01,      /* K =  1 */
(PID.TID 0000.0001)                 2.500000000000000E+02,      /* K =  2 */
(PID.TID 0000.0001)                 4.500000000000000E+02,      /* K =  3 */
(PID.TID 0000.0001)                 2.750000000000000E+03       /* K =  4 */
(PID.TID 0000.0001)     ;
(PID.TID 0000.0001) drF =   /* W spacing ( units of r ) */
(PID.TID 0000.0001)                 1.000000000000000E+02,      /* K =  1 */
(PID.TID 0000.0001)                 4.000000000000000E+02,      /* K =  2 */
(PID.TID 0000.0001)                 5.000000000000000E+02,      /* K =  3 */
(PID.TID 0000.0001)                 5.000000000000000E+03       /* K =  4 */
(PID.TID 0000.0001)     ;
(PID.TID 0000.0001) delX =   /* U spacing ( m - cartesian, degrees - spherical ) */
(PID.TID 0000.0001)     5 @  2.000000000000000E+05              /* I =  1:  5 */
(PID.TID 0000.0001)     ;
(PID.TID 0000.0001) delY =   /* V spacing ( m - cartesian, degrees - spherical ) */
(PID.TID 0000.0001)     5 @  2.000000000000000E+05              /* J =  1:  5 */
(PID.TID 0000.0001)     ;
(PID.TID 0000.0001) phiMin =    /* South edge (ignored - cartesian, degrees - spherical ) */
(PID.TID 0000.0001)                 0.000000000000000E+00
(PID.TID 0000.0001)     ;
(PID.TID 0000.0001) thetaMin =    /* West edge ( ignored - cartesian, degrees - spherical ) */
(PID.TID 0000.0001)                 0.000000000000000E+00
(PID.TID 0000.0001)     ;
(PID.TID 0000.0001) rSphere =  /* Radius ( ignored - cartesian, m - spherical ) */
(PID.TID 0000.0001)                 6.370000000000000E+06
(PID.TID 0000.0001)     ;
(PID.TID 0000.0001) deepAtmosphere = /* Deep/Shallow Atmosphere flag (True/False) */
(PID.TID 0000.0001)                   F
(PID.TID 0000.0001)     ;
(PID.TID 0000.0001) xcoord =   /* P-point X coord ( m - cartesian, degrees - spherical ) */
(PID.TID 0000.0001)                 1.000000000000000E+05,      /* I =  1 */
(PID.TID 0000.0001)                 3.000000000000000E+05,      /* I =  2 */
(PID.TID 0000.0001)                 5.000000000000000E+05,      /* I =  3 */
(PID.TID 0000.0001)                 7.000000000000000E+05,      /* I =  4 */
(PID.TID 0000.0001)                 9.000000000000000E+05       /* I =  5 */
(PID.TID 0000.0001)     ;
(PID.TID 0000.0001) ycoord =   /* P-point Y coord ( m - cartesian, degrees - spherical ) */
(PID.TID 0000.0001)                 1.000000000000000E+05,      /* J =  1 */
(PID.TID 0000.0001)                 3.000000000000000E+05,      /* J =  2 */
(PID.TID 0000.0001)                 5.000000000000000E+05,      /* J =  3 */
(PID.TID 0000.0001)                 7.000000000000000E+05,      /* J =  4 */
(PID.TID 0000.0001)                 9.000000000000000E+05       /* J =  5 */
(PID.TID 0000.0001)     ;
(PID.TID 0000.0001) rcoord =   /* P-point R coordinate (  units of r ) */
(PID.TID 0000.0001)                -5.000000000000000E+01,      /* K =  1 */
(PID.TID 0000.0001)                -3.000000000000000E+02,      /* K =  2 */
(PID.TID 0000.0001)                -7.500000000000000E+02,      /* K =  3 */
(PID.TID 0000.0001)                -3.500000000000000E+03       /* K =  4 */
(PID.TID 0000.0001)     ;
(PID.TID 0000.0001) rF =   /* W-Interf. R coordinate (  units of r ) */
(PID.TID 0000.0001)                 0.000000000000000E+00,      /* K =  1 */
(PID.TID 0000.0001)                -1.000000000000000E+02,      /* K =  2 */
(PID.TID 0000.0001)                -5.000000000000000E+02,      /* K =  3 */
(PID.TID 0000.0001)                -1.000000000000000E+03,      /* K =  4 */
(PID.TID 0000.0001)                -6.000000000000000E+03       /* K =  5 */
(PID.TID 0000.0001)     ;
(PID.TID 0000.0001) deepFacC = /* deep-model grid factor @ cell-Center (-) */
(PID.TID 0000.0001)     4 @  1.000000000000000E+00              /* K =  1:  4 */
(PID.TID 0000.0001)     ;
(PID.TID 0000.0001) deepFacF = /* deep-model grid factor @ W-Interface (-) */
(PID.TID 0000.0001)     5 @  1.000000000000000E+00              /* K =  1:  5 */
(PID.TID 0000.0001)     ;
(PID.TID 0000.0001) rVel2wUnit = /* convert units: rVel -> wSpeed (=1 if z-coord)*/
(PID.TID 0000.0001)     5 @  1.000000000000000E+00              /* K =  1:  5 */
(PID.TID 0000.0001)     ;
(PID.TID 0000.0001) wUnit2rVel = /* convert units: wSpeed -> rVel (=1 if z-coord)*/
(PID.TID 0000.0001)     5 @  1.000000000000000E+00              /* K =  1:  5 */
(PID.TID 0000.0001)     ;
(PID.TID 0000.0001) dBdrRef = /* Vertical gradient of reference boyancy [(m/s/r)^2)] */
(PID.TID 0000.0001)     4 @  0.000000000000000E+00              /* K =  1:  4 */
(PID.TID 0000.0001)     ;
(PID.TID 0000.0001) rotateGrid = /* use rotated grid ( True/False ) */
(PID.TID 0000.0001)                   F
(PID.TID 0000.0001)     ;
(PID.TID 0000.0001) phiEuler = /* Euler angle, rotation about original z-coordinate [rad] */
(PID.TID 0000.0001)                 0.000000000000000E+00
(PID.TID 0000.0001)     ;
(PID.TID 0000.0001) thetaEuler = /* Euler angle, rotation about new x-coordinate [rad] */
(PID.TID 0000.0001)                 0.000000000000000E+00
(PID.TID 0000.0001)     ;
(PID.TID 0000.0001) psiEuler = /* Euler angle, rotation about new z-coordinate [rad] */
(PID.TID 0000.0001)                 0.000000000000000E+00
(PID.TID 0000.0001)     ;
(PID.TID 0000.0001) dxF =  /* dxF(:,1,:,1) ( units: m ) */
(PID.TID 0000.0001)     5 @  2.000000000000000E+05              /* I =  1:  5 */
(PID.TID 0000.0001)     ;
(PID.TID 0000.0001) dxF =  /* dxF(1,:,1,:) ( units: m ) */
(PID.TID 0000.0001)     5 @  2.000000000000000E+05              /* J =  1:  5 */
(PID.TID 0000.0001)     ;
(PID.TID 0000.0001) dyF =  /* dyF(:,1,:,1) ( units: m ) */
(PID.TID 0000.0001)     5 @  2.000000000000000E+05              /* I =  1:  5 */
(PID.TID 0000.0001)     ;
(PID.TID 0000.0001) dyF =  /* dyF(1,:,1,:) ( units: m ) */
(PID.TID 0000.0001)     5 @  2.000000000000000E+05              /* J =  1:  5 */
(PID.TID 0000.0001)     ;
(PID.TID 0000.0001) dxG =  /* dxG(:,1,:,1) ( units: m ) */
(PID.TID 0000.0001)     5 @  2.000000000000000E+05              /* I =  1:  5 */
(PID.TID 0000.0001)     ;
(PID.TID 0000.0001) dxG =  /* dxG(1,:,1,:) ( units: m ) */
(PID.TID 0000.0001)     5 @  2.000000000000000E+05              /* J =  1:  5 */
(PID.TID 0000.0001)     ;
(PID.TID 0000.0001) dyG =  /* dyG(:,1,:,1) ( units: m ) */
(PID.TID 0000.0001)     5 @  2.000000000000000E+05              /* I =  1:  5 */
(PID.TID 0000.0001)     ;
(PID.TID 0000.0001) dyG =  /* dyG(1,:,1,:) ( units: m ) */
(PID.TID 0000.0001)     5 @  2.000000000000000E+05              /* J =  1:  5 */
(PID.TID 0000.0001)     ;
(PID.TID 0000.0001) dxC =  /* dxC(:,1,:,1) ( units: m ) */
(PID.TID 0000.0001)     5 @  2.000000000000000E+05              /* I =  1:  5 */
(PID.TID 0000.0001)     ;
(PID.TID 0000.0001) dxC =  /* dxC(1,:,1,:) ( units: m ) */
(PID.TID 0000.0001)     5 @  2.000000000000000E+05              /* J =  1:  5 */
(PID.TID 0000.0001)     ;
(PID.TID 0000.0001) dyC =  /* dyC(:,1,:,1) ( units: m ) */
(PID.TID 0000.0001)     5 @  2.000000000000000E+05              /* I =  1:  5 */
(PID.TID 0000.0001)     ;
(PID.TID 0000.0001) dyC =  /* dyC(1,:,1,:) ( units: m ) */
(PID.TID 0000.0001)     5 @  2.000000000000000E+05              /* J =  1:  5 */
(PID.TID 0000.0001)     ;
(PID.TID 0000.0001) dxV =  /* dxV(:,1,:,1) ( units: m ) */
(PID.TID 0000.0001)     5 @  2.000000000000000E+05              /* I =  1:  5 */
(PID.TID 0000.0001)     ;
(PID.TID 0000.0001) dxV =  /* dxV(1,:,1,:) ( units: m ) */
(PID.TID 0000.0001)     5 @  2.000000000000000E+05              /* J =  1:  5 */
(PID.TID 0000.0001)     ;
(PID.TID 0000.0001) dyU =  /* dyU(:,1,:,1) ( units: m ) */
(PID.TID 0000.0001)     5 @  2.000000000000000E+05              /* I =  1:  5 */
(PID.TID 0000.0001)     ;
(PID.TID 0000.0001) dyU =  /* dyU(1,:,1,:) ( units: m ) */
(PID.TID 0000.0001)     5 @  2.000000000000000E+05              /* J =  1:  5 */
(PID.TID 0000.0001)     ;
(PID.TID 0000.0001) rA  =  /* rA (:,1,:,1) ( units: m^2 ) */
(PID.TID 0000.0001)     5 @  4.000000000000000E+10              /* I =  1:  5 */
(PID.TID 0000.0001)     ;
(PID.TID 0000.0001) rA  =  /* rA (1,:,1,:) ( units: m^2 ) */
(PID.TID 0000.0001)     5 @  4.000000000000000E+10              /* J =  1:  5 */
(PID.TID 0000.0001)     ;
(PID.TID 0000.0001) rAw =  /* rAw(:,1,:,1) ( units: m^2 ) */
(PID.TID 0000.0001)     5 @  4.000000000000000E+10              /* I =  1:  5 */
(PID.TID 0000.0001)     ;
(PID.TID 0000.0001) rAw =  /* rAw(1,:,1,:) ( units: m^2 ) */
(PID.TID 0000.0001)     5 @  4.000000000000000E+10              /* J =  1:  5 */
(PID.TID 0000.0001)     ;
(PID.TID 0000.0001) rAs =  /* rAs(:,1,:,1) ( units: m^2 ) */
(PID.TID 0000.0001)     5 @  4.000000000000000E+10              /* I =  1:  5 */
(PID.TID 0000.0001)     ;
(PID.TID 0000.0001) rAs =  /* rAs(1,:,1,:) ( units: m^2 ) */
(PID.TID 0000.0001)     5 @  4.000000000000000E+10              /* J =  1:  5 */
(PID.TID 0000.0001)     ;
(PID.TID 0000.0001) globalArea = /* Integrated horizontal Area (m^2) */
(PID.TID 0000.0001)                 1.000000000000000E+12
(PID.TID 0000.0001)     ;
(PID.TID 0000.0001) // =======================================================
(PID.TID 0000.0001) // End of Model config. summary
(PID.TID 0000.0001) // =======================================================
(PID.TID 0000.0001) 
(PID.TID 0000.0001) == Packages configuration : Check & print summary ==
(PID.TID 0000.0001) 
(PID.TID 0000.0001) GAD_CHECK: #define ALLOW_GENERIC_ADVDIFF
(PID.TID 0000.0001) CTRL_CHECK: ctrl package
(PID.TID 0000.0001) COST_CHECK: cost package
(PID.TID 0000.0001) CTRL_CHECK: ctrl package
(PID.TID 0000.0001) // =======================================================
(PID.TID 0000.0001) // CONFIG_CHECK : Normal End
(PID.TID 0000.0001) // =======================================================
(PID.TID 0000.0001) 
(PID.TID 0000.0001)  MDS_READ_FIELD: opening global file: noWalls.bigRidge
(PID.TID 0000.0001) // =======================================================
(PID.TID 0000.0001) // Field Model R_low (ini_masks_etc) at iteration          1
(PID.TID 0000.0001) // CMIN =         -5.000000000000000E+03
(PID.TID 0000.0001) // CMAX =         -2.000000000000000E+03
(PID.TID 0000.0001) // CINT =          1.111111111111111E+02
(PID.TID 0000.0001) // SYMBOLS (CMIN->CMAX): -abcdefghijklmnopqrstuvwxyz+
(PID.TID 0000.0001) //                  0.0: .
(PID.TID 0000.0001) // RANGE I (Lo:Hi:Step):(  -1:   7:   1)
(PID.TID 0000.0001) // RANGE J (Lo:Hi:Step):(   7:  -1:  -1)
(PID.TID 0000.0001) // RANGE K (Lo:Hi:Step):(   1:   1:   1)
(PID.TID 0000.0001) // =======================================================
(PID.TID 0000.0001) K =   1
(PID.TID 0000.0001) //
(PID.TID 0000.0001) // |--J--|101234567
(PID.TID 0000.0001) //      7 ----+----
(PID.TID 0000.0001) //      6 ----+----
(PID.TID 0000.0001) //      5 ----+----
(PID.TID 0000.0001) //      4 ----+----
(PID.TID 0000.0001) //      3 ----+----
(PID.TID 0000.0001) //      2 ----+----
(PID.TID 0000.0001) //      1 ----+----
(PID.TID 0000.0001) //      0 ----+----
(PID.TID 0000.0001) //     -1 ----+----
(PID.TID 0000.0001) // =======================================================
(PID.TID 0000.0001) // END OF FIELD                                          =
(PID.TID 0000.0001) // =======================================================
(PID.TID 0000.0001) 
(PID.TID 0000.0001) // =======================================================
(PID.TID 0000.0001) // Field Model Ro_surf (ini_masks_etc) at iteration          1
(PID.TID 0000.0001) // CMIN =          1.000000000000000E+32
(PID.TID 0000.0001) // CMAX =         -1.000000000000000E+32
(PID.TID 0000.0001) // CINT =          0.000000000000000E+00
(PID.TID 0000.0001) // SYMBOLS (CMIN->CMAX): -abcdefghijklmnopqrstuvwxyz+
(PID.TID 0000.0001) //                  0.0: .
(PID.TID 0000.0001) // RANGE I (Lo:Hi:Step):(  -1:   7:   1)
(PID.TID 0000.0001) // RANGE J (Lo:Hi:Step):(   7:  -1:  -1)
(PID.TID 0000.0001) // RANGE K (Lo:Hi:Step):(   1:   1:   1)
(PID.TID 0000.0001) // =======================================================
(PID.TID 0000.0001) // =======================================================
(PID.TID 0000.0001) // END OF FIELD                                          =
(PID.TID 0000.0001) // =======================================================
(PID.TID 0000.0001) 
(PID.TID 0000.0001) // =======================================================
(PID.TID 0000.0001) // Field hFacC at iteration          1
(PID.TID 0000.0001) // CMIN =          1.000000000000000E+00
(PID.TID 0000.0001) // CMAX =          1.000000000000000E+00
(PID.TID 0000.0001) // CINT =          0.000000000000000E+00
(PID.TID 0000.0001) // SYMBOLS (CMIN->CMAX): -abcdefghijklmnopqrstuvwxyz+
(PID.TID 0000.0001) //                  0.0: .
(PID.TID 0000.0001) // RANGE I (Lo:Hi:Step):(  -1:   7:   1)
(PID.TID 0000.0001) // RANGE J (Lo:Hi:Step):(   7:  -1:  -1)
(PID.TID 0000.0001) // RANGE K (Lo:Hi:Step):(   1:   1:   1)
(PID.TID 0000.0001) // =======================================================
(PID.TID 0000.0001) // =======================================================
(PID.TID 0000.0001) // END OF FIELD                                          =
(PID.TID 0000.0001) // =======================================================
(PID.TID 0000.0001) 
(PID.TID 0000.0001) // =======================================================
(PID.TID 0000.0001) // Field hFacW at iteration          1
(PID.TID 0000.0001) // CMIN =          1.000000000000000E+00
(PID.TID 0000.0001) // CMAX =          1.000000000000000E+00
(PID.TID 0000.0001) // CINT =          0.000000000000000E+00
(PID.TID 0000.0001) // SYMBOLS (CMIN->CMAX): -abcdefghijklmnopqrstuvwxyz+
(PID.TID 0000.0001) //                  0.0: .
(PID.TID 0000.0001) // RANGE I (Lo:Hi:Step):(  -1:   7:   1)
(PID.TID 0000.0001) // RANGE J (Lo:Hi:Step):(   7:  -1:  -1)
(PID.TID 0000.0001) // RANGE K (Lo:Hi:Step):(   1:   1:   1)
(PID.TID 0000.0001) // =======================================================
(PID.TID 0000.0001) // =======================================================
(PID.TID 0000.0001) // END OF FIELD                                          =
(PID.TID 0000.0001) // =======================================================
(PID.TID 0000.0001) 
(PID.TID 0000.0001) // =======================================================
(PID.TID 0000.0001) // Field hFacS at iteration          1
(PID.TID 0000.0001) // CMIN =          1.000000000000000E+00
(PID.TID 0000.0001) // CMAX =          1.000000000000000E+00
(PID.TID 0000.0001) // CINT =          0.000000000000000E+00
(PID.TID 0000.0001) // SYMBOLS (CMIN->CMAX): -abcdefghijklmnopqrstuvwxyz+
(PID.TID 0000.0001) //                  0.0: .
(PID.TID 0000.0001) // RANGE I (Lo:Hi:Step):(  -1:   7:   1)
(PID.TID 0000.0001) // RANGE J (Lo:Hi:Step):(   7:  -1:  -1)
(PID.TID 0000.0001) // RANGE K (Lo:Hi:Step):(   1:   1:   1)
(PID.TID 0000.0001) // =======================================================
(PID.TID 0000.0001) // =======================================================
(PID.TID 0000.0001) // END OF FIELD                                          =
(PID.TID 0000.0001) // =======================================================
(PID.TID 0000.0001) 
(PID.TID 0000.0001) %MON fCori_max                    =  -1.0735540000000E-04
(PID.TID 0000.0001) %MON fCori_min                    =  -1.1783060000000E-04
(PID.TID 0000.0001) %MON fCori_mean                   =  -1.1259300000000E-04
(PID.TID 0000.0001) %MON fCori_sd                     =   3.7035424771427E-06
(PID.TID 0000.0001) %MON fCoriG_max                   =  -1.0866480000000E-04
(PID.TID 0000.0001) %MON fCoriG_min                   =  -1.1914000000000E-04
(PID.TID 0000.0001) %MON fCoriG_mean                  =  -1.1390240000000E-04
(PID.TID 0000.0001) %MON fCoriG_sd                    =   3.7035424771427E-06
(PID.TID 0000.0001) %MON fCoriCos_max                 =   0.0000000000000E+00
(PID.TID 0000.0001) %MON fCoriCos_min                 =   0.0000000000000E+00
(PID.TID 0000.0001) %MON fCoriCos_mean                =   0.0000000000000E+00
(PID.TID 0000.0001) %MON fCoriCos_sd                  =   0.0000000000000E+00
(PID.TID 0000.0001) INI_CG2D: CG2D normalisation factor =  1.9999999999999996E-04
(PID.TID 0000.0001) 
                     ctrl_depth_ini: ctrl update R_low,
                                     adding the control vector.
(PID.TID 0000.0001)  MDS_READ_FIELD: opening file: xx_depth.0000000000.001.001.data
(PID.TID 0000.0001) // =======================================================
(PID.TID 0000.0001) // Field Model Ro_surf (update_masks_etc) at iteration          1
(PID.TID 0000.0001) // CMIN =          1.000000000000000E+32
(PID.TID 0000.0001) // CMAX =         -1.000000000000000E+32
(PID.TID 0000.0001) // CINT =          0.000000000000000E+00
(PID.TID 0000.0001) // SYMBOLS (CMIN->CMAX): -abcdefghijklmnopqrstuvwxyz+
(PID.TID 0000.0001) //                  0.0: .
(PID.TID 0000.0001) // RANGE I (Lo:Hi:Step):(  -1:   7:   1)
(PID.TID 0000.0001) // RANGE J (Lo:Hi:Step):(   7:  -1:  -1)
(PID.TID 0000.0001) // RANGE K (Lo:Hi:Step):(   1:   1:   1)
(PID.TID 0000.0001) // =======================================================
(PID.TID 0000.0001) // =======================================================
(PID.TID 0000.0001) // END OF FIELD                                          =
(PID.TID 0000.0001) // =======================================================
(PID.TID 0000.0001) 
(PID.TID 0000.0001) // =======================================================
(PID.TID 0000.0001) // Field hFacC at iteration          1
(PID.TID 0000.0001) // CMIN =          1.000000000000000E+00
(PID.TID 0000.0001) // CMAX =          1.000000000000000E+00
(PID.TID 0000.0001) // CINT =          0.000000000000000E+00
(PID.TID 0000.0001) // SYMBOLS (CMIN->CMAX): -abcdefghijklmnopqrstuvwxyz+
(PID.TID 0000.0001) //                  0.0: .
(PID.TID 0000.0001) // RANGE I (Lo:Hi:Step):(  -1:   7:   1)
(PID.TID 0000.0001) // RANGE J (Lo:Hi:Step):(   7:  -1:  -1)
(PID.TID 0000.0001) // RANGE K (Lo:Hi:Step):(   1:   1:   1)
(PID.TID 0000.0001) // =======================================================
[...]
 cg2d: Sum(rhs),rhsMax =  -2.94238804722854E+00  3.02377919495684E-03
 cg2d: Sum(rhs),rhsMax =  -2.84207292336290E+00  3.04217216849665E-03
 cg2d: Sum(rhs),rhsMax =  -2.51902156123357E+00  3.13830815270477E-03
 cg2d: Sum(rhs),rhsMax =  -2.14123711518717E+00  3.18959333931135E-03
 cg2d: Sum(rhs),rhsMax =  -1.76835900907374E+00  3.18714943082833E-03
 cg2d: Sum(rhs),rhsMax =  -1.45590331724189E+00  3.13272240217575E-03
 cg2d: Sum(rhs),rhsMax =  -1.25508052482947E+00  3.03818428567467E-03
 cg2d: Sum(rhs),rhsMax =  -1.20874884472695E+00  2.92306003644061E-03
 cg2d: Sum(rhs),rhsMax =  -1.34034289396325E+00  2.81059318136411E-03
 cg2d: Sum(rhs),rhsMax =  -1.62624318885248E+00  2.74190564685292E-03
(PID.TID 0000.0001) %CHECKPOINT       100 ckptB
 --> objf_test(bi,bj)   =  0.509071994208854E-01
 --> objf_tracer(bi,bj) =  0.000000000000000E+00
 --> objf_atl(bi,bj)    =  0.000000000000000E+00
  local fc =  0.509071994208854E-01
 global fc =  0.509071994208854E-01
(PID.TID 0000.0001)  MDS_READ_FIELD: opening file: xx_depth.0000000000.001.001.data
grad-res -------------------------------
 grad-res     0   25    5    5    1    1    1    1   0.509071982062E-01 0.509071969914E-01 0.509071994209E-01
 grad-res     0   25   25   25   25    1    1    1   -.121475485330E-04 -.121473388986E-04 0.172573388648E-04
(PID.TID 0000.0001)   ADM  precision_derivative_cost =    5.09071982061515E-02
(PID.TID 0000.0001)   ADM  precision_derivative_grad =   -1.21475485330107E-05
 ph-grd  ierr ---------------------------
 ph-grd  ierr =  0, icomp =  25, ichknum =  25
(PID.TID 0000.0001) 
(PID.TID 0000.0001) // =======================================================
(PID.TID 0000.0001) // Gradient check results  >>> START <<<
(PID.TID 0000.0001) // =======================================================
(PID.TID 0000.0001) 
(PID.TID 0000.0001) 
(PID.TID 0000.0001)  EPS =  0.100E-03
(PID.TID 0000.0001) grdchk output:            procId               I        ITILEPOS        JTILEPOS           LAYER            X(I)      X(I)+/-EPS
(PID.TID 0000.0001) grdchk output:                                FC             FC1             FC2 FC1-FC2/(2*EPS)    ADJ GRAD(FC)   1-FDGRD/ADGRD
(PID.TID 0000.0001) grdchk output:                 0               1               1               1               1 0.000000000E+00 -.100000000E-03
(PID.TID 0000.0001) grdchk output:                   0.509071982E-01 0.509071990E-01 0.509071975E-01 0.749375555E-05 0.749377789E-05 0.298126307E-05
(PID.TID 0000.0001) 
(PID.TID 0000.0001) grdchk output:                 0               2               2               1               1 0.000000000E+00 -.100000000E-03
(PID.TID 0000.0001) grdchk output:                   0.509071982E-01 0.509071977E-01 0.509071987E-01 -.467963720E-05 -.467928413E-05 -.754536221E-04
(PID.TID 0000.0001) 
(PID.TID 0000.0001) grdchk output:                 0               3               3               1               1 0.000000000E+00 -.100000000E-03
(PID.TID 0000.0001) grdchk output:                   0.509071982E-01 0.509071978E-01 0.509071986E-01 -.437250455E-05 -.437083369E-05 -.382273357E-03
(PID.TID 0000.0001) 
(PID.TID 0000.0001) grdchk output:                 0               4               4               1               1 0.000000000E+00 -.100000000E-03
(PID.TID 0000.0001) grdchk output:                   0.509071982E-01 0.509071983E-01 0.509071982E-01 0.461980940E-06 0.462340818E-06 0.778383019E-03
(PID.TID 0000.0001) 
(PID.TID 0000.0001) grdchk output:                 0               5               5               1               1 0.000000000E+00 -.100000000E-03
(PID.TID 0000.0001) grdchk output:                   0.509071982E-01 0.509071988E-01 0.509071976E-01 0.611649908E-05 0.611644824E-05 -.831118608E-05
(PID.TID 0000.0001) 
(PID.TID 0000.0001) grdchk output:                 0               6               1               2               1 0.000000000E+00 -.100000000E-03
(PID.TID 0000.0001) grdchk output:                   0.509071982E-01 0.509071983E-01 0.509071981E-01 0.135653665E-05 0.135640536E-05 -.967984628E-04
(PID.TID 0000.0001) 
(PID.TID 0000.0001) grdchk output:                 0               7               2               2               1 0.000000000E+00 -.100000000E-03
(PID.TID 0000.0001) grdchk output:                   0.509071982E-01 0.509071982E-01 0.509071982E-01 0.318144400E-06 0.317833266E-06 -.978921888E-03
(PID.TID 0000.0001) 
(PID.TID 0000.0001) grdchk output:                 0               8               3               2               1 0.000000000E+00 -.100000000E-03
(PID.TID 0000.0001) grdchk output:                   0.509071982E-01 0.509071986E-01 0.509071978E-01 0.434576278E-05 0.434611528E-05 0.811072937E-04
(PID.TID 0000.0001) 
(PID.TID 0000.0001) grdchk output:                 0               9               4               2               1 0.000000000E+00 -.100000000E-03
(PID.TID 0000.0001) grdchk output:                   0.509071982E-01 0.509071981E-01 0.509071983E-01 -.619306967E-06 -.619713099E-06 0.655355572E-03
(PID.TID 0000.0001) 
(PID.TID 0000.0001) grdchk output:                 0              10               5               2               1 0.000000000E+00 -.100000000E-03
(PID.TID 0000.0001) grdchk output:                   0.509071982E-01 0.509071983E-01 0.509071981E-01 0.109146026E-05 0.109132588E-05 -.123127421E-03
(PID.TID 0000.0001) 
(PID.TID 0000.0001) grdchk output:                 0              11               1               3               1 0.000000000E+00 -.100000000E-03
(PID.TID 0000.0001) grdchk output:                   0.509071982E-01 0.509071983E-01 0.509071981E-01 0.112844525E-05 0.112863032E-05 0.163974585E-03
(PID.TID 0000.0001) 
(PID.TID 0000.0001) grdchk output:                 0              12               2               3               1 0.000000000E+00 -.100000000E-03
(PID.TID 0000.0001) grdchk output:                   0.509071982E-01 0.509071981E-01 0.509071983E-01 -.613150052E-06 -.612913591E-06 -.385797541E-03
(PID.TID 0000.0001) 
(PID.TID 0000.0001) grdchk output:                 0              13               3               3               1 0.000000000E+00 -.100000000E-03
(PID.TID 0000.0001) grdchk output:                   0.509071982E-01 0.509071985E-01 0.509071979E-01 0.301133948E-05 0.301354900E-05 0.733197368E-03
(PID.TID 0000.0001) 
(PID.TID 0000.0001) grdchk output:                 0              14               4               3               1 0.000000000E+00 -.100000000E-03
(PID.TID 0000.0001) grdchk output:                   0.509071982E-01 0.509071980E-01 0.509071984E-01 -.231793577E-05 -.231773627E-05 -.860760986E-04
(PID.TID 0000.0001) 
(PID.TID 0000.0001) grdchk output:                 0              15               5               3               1 0.000000000E+00 -.100000000E-03
(PID.TID 0000.0001) grdchk output:                   0.509071982E-01 0.509071980E-01 0.509071984E-01 -.215929392E-05 -.215910803E-05 -.860978934E-04
(PID.TID 0000.0001) 
(PID.TID 0000.0001) grdchk output:                 0              16               1               4               1 0.000000000E+00 -.100000000E-03
(PID.TID 0000.0001) grdchk output:                   0.509071982E-01 0.509071982E-01 0.509071982E-01 0.179289812E-06 0.179081974E-06 -.116057827E-02
(PID.TID 0000.0001) 
(PID.TID 0000.0001) grdchk output:                 0              17               2               4               1 0.000000000E+00 -.100000000E-03
(PID.TID 0000.0001) grdchk output:                   0.509071982E-01 0.509071983E-01 0.509071981E-01 0.126734720E-05 0.126704929E-05 -.235117048E-03
(PID.TID 0000.0001) 
(PID.TID 0000.0001) grdchk output:                 0              18               3               4               1 0.000000000E+00 -.100000000E-03
(PID.TID 0000.0001) grdchk output:                   0.509071982E-01 0.509071987E-01 0.509071977E-01 0.528457448E-05 0.528181669E-05 -.522129258E-03
(PID.TID 0000.0001) 
(PID.TID 0000.0001) grdchk output:                 0              19               4               4               1 0.000000000E+00 -.100000000E-03
(PID.TID 0000.0001) grdchk output:                   0.509071982E-01 0.509071982E-01 0.509071982E-01 -.271280012E-06 -.271513194E-06 0.858821958E-03
(PID.TID 0000.0001) 
(PID.TID 0000.0001) grdchk output:                 0              20               5               4               1 0.000000000E+00 -.100000000E-03
(PID.TID 0000.0001) grdchk output:                   0.509071982E-01 0.509071981E-01 0.509071983E-01 -.114964462E-05 -.114980291E-05 0.137669548E-03
(PID.TID 0000.0001) 
(PID.TID 0000.0001) grdchk output:                 0              21               1               5               1 0.000000000E+00 -.100000000E-03
(PID.TID 0000.0001) grdchk output:                   0.509071982E-01 0.509071977E-01 0.509071987E-01 -.467367360E-05 -.467381058E-05 0.293073838E-04
(PID.TID 0000.0001) 
(PID.TID 0000.0001) grdchk output:                 0              22               2               5               1 0.000000000E+00 -.100000000E-03
(PID.TID 0000.0001) grdchk output:                   0.509071982E-01 0.509071987E-01 0.509071977E-01 0.456983645E-05 0.457003966E-05 0.444647623E-04
(PID.TID 0000.0001) 
(PID.TID 0000.0001) grdchk output:                 0              23               3               5               1 0.000000000E+00 -.100000000E-03
(PID.TID 0000.0001) grdchk output:                   0.509071982E-01 0.509071992E-01 0.509071972E-01 0.100933886E-04 0.100921756E-04 -.120190156E-03
(PID.TID 0000.0001) 
(PID.TID 0000.0001) grdchk output:                 0              24               4               5               1 0.000000000E+00 -.100000000E-03
(PID.TID 0000.0001) grdchk output:                   0.509071982E-01 0.509071980E-01 0.509071984E-01 -.219474591E-05 -.219466380E-05 -.374160361E-04
(PID.TID 0000.0001) 
(PID.TID 0000.0001) grdchk output:                 0              25               5               5               1 0.000000000E+00 -.100000000E-03
(PID.TID 0000.0001) grdchk output:                   0.509071982E-01 0.509071970E-01 0.509071994E-01 -.121473389E-04 -.121475485E-04 0.172573389E-04
(PID.TID 0000.0001) 
(PID.TID 0000.0001) 
(PID.TID 0000.0001) // =======================================================
(PID.TID 0000.0001) // Gradient check results  >>> END <<<
(PID.TID 0000.0001) // =======================================================
(PID.TID 0000.0001) 
(PID.TID 0000.0001)   Seconds in section "ALL                    [THE_MODEL_MAIN]":
(PID.TID 0000.0001)           User time:  21.0817946
(PID.TID 0000.0001)         System time:  0.76488399
(PID.TID 0000.0001)     Wall clock time:  21.8506401
(PID.TID 0000.0001)          No. starts: 1
(PID.TID 0000.0001)           No. stops: 1
(PID.TID 0000.0001)   Seconds in section "INITIALISE_FIXED       [THE_MODEL_MAIN]":
(PID.TID 0000.0001)           User time:  0.0449930001
(PID.TID 0000.0001)         System time:  0.00699900044
(PID.TID 0000.0001)     Wall clock time:  0.052200079
(PID.TID 0000.0001)          No. starts: 1
(PID.TID 0000.0001)           No. stops: 1
(PID.TID 0000.0001)   Seconds in section "ADTHE_MAIN_LOOP          [ADJOINT RUN]":
(PID.TID 0000.0001)           User time:  2.25365788
(PID.TID 0000.0001)         System time:  0.0539919985
(PID.TID 0000.0001)     Wall clock time:  2.30729294
(PID.TID 0000.0001)          No. starts: 1
(PID.TID 0000.0001)           No. stops: 1
(PID.TID 0000.0001)   Seconds in section "LOAD_FIELDS_DRIVER  [FORWARD_STEP]":
(PID.TID 0000.0001)           User time:  0.629883148
(PID.TID 0000.0001)         System time:  0.0349961147
(PID.TID 0000.0001)     Wall clock time:  0.61715579
(PID.TID 0000.0001)          No. starts: 5200
(PID.TID 0000.0001)           No. stops: 5200
(PID.TID 0000.0001)   Seconds in section "EXTERNAL_FLDS_LOAD [LOAD_FLDS_DRIVER]":
(PID.TID 0000.0001)           User time:  0.218970604
(PID.TID 0000.0001)         System time:  0.0159981176
(PID.TID 0000.0001)     Wall clock time:  0.213482857
(PID.TID 0000.0001)          No. starts: 5400
(PID.TID 0000.0001)           No. stops: 5400
(PID.TID 0000.0001)   Seconds in section "DO_ATMOSPHERIC_PHYS [FORWARD_STEP]":
(PID.TID 0000.0001)           User time:  0.152971879
(PID.TID 0000.0001)         System time:  0.0159970038
(PID.TID 0000.0001)     Wall clock time:  0.204899788
(PID.TID 0000.0001)          No. starts: 5200
(PID.TID 0000.0001)           No. stops: 5200
(PID.TID 0000.0001)   Seconds in section "DO_OCEANIC_PHYS     [FORWARD_STEP]":
(PID.TID 0000.0001)           User time:  1.02384889
(PID.TID 0000.0001)         System time:  0.0139980465
(PID.TID 0000.0001)     Wall clock time:  1.00774431
(PID.TID 0000.0001)          No. starts: 5200
(PID.TID 0000.0001)           No. stops: 5200
(PID.TID 0000.0001)   Seconds in section "THERMODYNAMICS      [FORWARD_STEP]":
(PID.TID 0000.0001)           User time:  2.64964481
(PID.TID 0000.0001)         System time:  0.015997
(PID.TID 0000.0001)     Wall clock time:  2.71763182
(PID.TID 0000.0001)          No. starts: 5200
(PID.TID 0000.0001)           No. stops: 5200
(PID.TID 0000.0001)   Seconds in section "DYNAMICS            [FORWARD_STEP]":
(PID.TID 0000.0001)           User time:  5.45416436
(PID.TID 0000.0001)         System time:  0.0249969289
(PID.TID 0000.0001)     Wall clock time:  5.47162795
(PID.TID 0000.0001)          No. starts: 5200
(PID.TID 0000.0001)           No. stops: 5200
(PID.TID 0000.0001)   Seconds in section "SOLVE_FOR_PRESSURE  [FORWARD_STEP]":
(PID.TID 0000.0001)           User time:  2.92755166
(PID.TID 0000.0001)         System time:  0.0139960647
(PID.TID 0000.0001)     Wall clock time:  2.98567772
(PID.TID 0000.0001)          No. starts: 5200
(PID.TID 0000.0001)           No. stops: 5200
(PID.TID 0000.0001)   Seconds in section "MOM_CORRECTION_STEP [FORWARD_STEP]":
(PID.TID 0000.0001)           User time:  0.491930574
(PID.TID 0000.0001)         System time:  0.013998121
(PID.TID 0000.0001)     Wall clock time:  0.481102228
(PID.TID 0000.0001)          No. starts: 5200
(PID.TID 0000.0001)           No. stops: 5200
(PID.TID 0000.0001)   Seconds in section "TRC_CORRECTION_STEP [FORWARD_STEP]":
(PID.TID 0000.0001)           User time:  0.235969782
(PID.TID 0000.0001)         System time:  0.0139960926
(PID.TID 0000.0001)     Wall clock time:  0.2865839
(PID.TID 0000.0001)          No. starts: 5200
(PID.TID 0000.0001)           No. stops: 5200
(PID.TID 0000.0001)   Seconds in section "BLOCKING_EXCHANGES  [FORWARD_STEP]":
(PID.TID 0000.0001)           User time:  0.900858827
(PID.TID 0000.0001)         System time:  0.0189969987
(PID.TID 0000.0001)     Wall clock time:  0.868405104
(PID.TID 0000.0001)          No. starts: 5200
(PID.TID 0000.0001)           No. stops: 5200
(PID.TID 0000.0001)   Seconds in section "DO_STATEVARS_TAVE   [FORWARD_STEP]":
(PID.TID 0000.0001)           User time:  0.159969658
(PID.TID 0000.0001)         System time:  0.0109999701
(PID.TID 0000.0001)     Wall clock time:  0.206501484
(PID.TID 0000.0001)          No. starts: 5200
(PID.TID 0000.0001)           No. stops: 5200
(PID.TID 0000.0001)   Seconds in section "MONITOR             [FORWARD_STEP]":
(PID.TID 0000.0001)           User time:  0.483955495
(PID.TID 0000.0001)         System time:  0.0149960089
(PID.TID 0000.0001)     Wall clock time:  0.511300802
(PID.TID 0000.0001)          No. starts: 5200
(PID.TID 0000.0001)           No. stops: 5200
(PID.TID 0000.0001)   Seconds in section "COST_TILE           [FORWARD_STEP]":
(PID.TID 0000.0001)           User time:  0.403937332
(PID.TID 0000.0001)         System time:  0.0139960051
(PID.TID 0000.0001)     Wall clock time:  0.391731501
(PID.TID 0000.0001)          No. starts: 5200
(PID.TID 0000.0001)           No. stops: 5200
(PID.TID 0000.0001)   Seconds in section "DO_THE_MODEL_IO     [FORWARD_STEP]":
(PID.TID 0000.0001)           User time:  0.301950067
(PID.TID 0000.0001)         System time:  0.105980858
(PID.TID 0000.0001)     Wall clock time:  0.384959221
(PID.TID 0000.0001)          No. starts: 5200
(PID.TID 0000.0001)           No. stops: 5200
(PID.TID 0000.0001)   Seconds in section "DO_WRITE_PICKUP     [FORWARD_STEP]":
(PID.TID 0000.0001)           User time:  0.258961163
(PID.TID 0000.0001)         System time:  0.0989881828
(PID.TID 0000.0001)     Wall clock time:  0.396071672
(PID.TID 0000.0001)          No. starts: 5200
(PID.TID 0000.0001)           No. stops: 5200
(PID.TID 0000.0001)   Seconds in section "CTRL_PACK           [THE_MODEL_MAIN]":
(PID.TID 0000.0001)           User time:  0.00100016594
(PID.TID 0000.0001)         System time:  0.000999003649
(PID.TID 0000.0001)     Wall clock time:  0.00198698044
(PID.TID 0000.0001)          No. starts: 1
(PID.TID 0000.0001)           No. stops: 1
(PID.TID 0000.0001)   Seconds in section "CTRL_PACK     [THE_MODEL_MAIN]":
(PID.TID 0000.0001)           User time:  0.00199890137
(PID.TID 0000.0001)         System time:  0.
(PID.TID 0000.0001)     Wall clock time:  0.00191283226
(PID.TID 0000.0001)          No. starts: 1
(PID.TID 0000.0001)           No. stops: 1
(PID.TID 0000.0001)   Seconds in section "GRDCHK_MAIN         [THE_MODEL_MAIN]":
(PID.TID 0000.0001)           User time:  18.7801447
(PID.TID 0000.0001)         System time:  0.702893987
(PID.TID 0000.0001)     Wall clock time:  19.4869709
(PID.TID 0000.0001)          No. starts: 1
(PID.TID 0000.0001)           No. stops: 1
(PID.TID 0000.0001)   Seconds in section "INITIALISE_VARIA    [THE_MAIN_LOOP]":
(PID.TID 0000.0001)           User time:  0.439935446
(PID.TID 0000.0001)         System time:  0.111983821
(PID.TID 0000.0001)     Wall clock time:  0.553824425
(PID.TID 0000.0001)          No. starts: 50
(PID.TID 0000.0001)           No. stops: 50
(PID.TID 0000.0001)   Seconds in section "MAIN LOOP           [THE_MAIN_LOOP]":
(PID.TID 0000.0001)           User time:  18.2972169
(PID.TID 0000.0001)         System time:  0.572913095
(PID.TID 0000.0001)     Wall clock time:  18.8721142
(PID.TID 0000.0001)          No. starts: 50
(PID.TID 0000.0001)           No. stops: 50
(PID.TID 0000.0001)   Seconds in section "FORWARD_STEP        [THE_MAIN_LOOP]":
(PID.TID 0000.0001)           User time:  18.0132682
(PID.TID 0000.0001)         System time:  0.563914023
(PID.TID 0000.0001)     Wall clock time:  18.5831573
(PID.TID 0000.0001)          No. starts: 5000
(PID.TID 0000.0001)           No. stops: 5000
(PID.TID 0000.0001)   Seconds in section "COST_FINAL         [ADJOINT SPIN-DOWN]":
(PID.TID 0000.0001)           User time:  0.00399827957
(PID.TID 0000.0001)         System time:  0.
(PID.TID 0000.0001)     Wall clock time:  0.00409865379
(PID.TID 0000.0001)          No. starts: 50
(PID.TID 0000.0001)           No. stops: 50
(PID.TID 0000.0001) // ======================================================
(PID.TID 0000.0001) // Tile <-> Tile communication statistics
(PID.TID 0000.0001) // ======================================================
(PID.TID 0000.0001) // o Tile number: 000001
(PID.TID 0000.0001) //         No. X exchanges =              0
(PID.TID 0000.0001) //            Max. X spins =              0
(PID.TID 0000.0001) //            Min. X spins =     1000000000
(PID.TID 0000.0001) //          Total. X spins =              0
(PID.TID 0000.0001) //            Avg. X spins =       0.00E+00
(PID.TID 0000.0001) //         No. Y exchanges =              0
(PID.TID 0000.0001) //            Max. Y spins =              0
(PID.TID 0000.0001) //            Min. Y spins =     1000000000
(PID.TID 0000.0001) //          Total. Y spins =              0
(PID.TID 0000.0001) //            Avg. Y spins =       0.00E+00
(PID.TID 0000.0001) // o Thread number: 000001
(PID.TID 0000.0001) //            No. barriers =        1017124
(PID.TID 0000.0001) //      Max. barrier spins =              1
(PID.TID 0000.0001) //      Min. barrier spins =              1
(PID.TID 0000.0001) //     Total barrier spins =        1017124
(PID.TID 0000.0001) //      Avg. barrier spins =       1.00E+00
