(PID.TID 0000.0001) 
(PID.TID 0000.0001) // ======================================================
(PID.TID 0000.0001) //                      MITgcm UV
(PID.TID 0000.0001) //                      =========
(PID.TID 0000.0001) // ======================================================
(PID.TID 0000.0001) // execution environment starting up...
(PID.TID 0000.0001) 
(PID.TID 0000.0001) // MITgcmUV version:  checkpoint69m
(PID.TID 0000.0001) // Build user:        jm_c
(PID.TID 0000.0001) // Build host:        villon
(PID.TID 0000.0001) // Build date:        Wed Apr 15 17:27:10 EDT 2026
(PID.TID 0000.0001) 
(PID.TID 0000.0001) // =======================================================
(PID.TID 0000.0001) // Execution Environment parameter file "eedata"
(PID.TID 0000.0001) // =======================================================
(PID.TID 0000.0001) ># Example "eedata" file
(PID.TID 0000.0001) ># Lines beginning "#" are comments
(PID.TID 0000.0001) ># nTx - No. threads per process in X
(PID.TID 0000.0001) ># nTy - No. threads per process in Y
(PID.TID 0000.0001) > &EEPARMS
(PID.TID 0000.0001) > nTx=1,
(PID.TID 0000.0001) > nTy=1,
(PID.TID 0000.0001) > /
(PID.TID 0000.0001) ># Note: Some systems use & as the namelist terminator (as shown here).
(PID.TID 0000.0001) >#       Other systems use a / character.
(PID.TID 0000.0001) 
(PID.TID 0000.0001) // =======================================================
(PID.TID 0000.0001) // Computational Grid Specification ( see files "SIZE.h" )
(PID.TID 0000.0001) //                                  ( and "eedata"       )
(PID.TID 0000.0001) // =======================================================
(PID.TID 0000.0001)      nPx =    1 ; /* No. processes in X */
(PID.TID 0000.0001)      nPy =    1 ; /* No. processes in Y */
(PID.TID 0000.0001)      nSx =    2 ; /* No. tiles in X per process */
(PID.TID 0000.0001)      nSy =    1 ; /* No. tiles in Y per process */
(PID.TID 0000.0001)      sNx =    5 ; /* Tile size in X */
(PID.TID 0000.0001)      sNy =    8 ; /* Tile size in Y */
(PID.TID 0000.0001)      OLx =    4 ; /* Tile overlap distance in X */
(PID.TID 0000.0001)      OLy =    4 ; /* Tile overlap distance in Y */
(PID.TID 0000.0001)      nTx =    1 ; /* No. threads in X per process */
(PID.TID 0000.0001)      nTy =    1 ; /* No. threads in Y per process */
(PID.TID 0000.0001)       Nr =   23 ; /* No. levels in the vertical   */
(PID.TID 0000.0001)       Nx =   10 ; /* Total domain size in X ( = nPx*nSx*sNx ) */
(PID.TID 0000.0001)       Ny =    8 ; /* Total domain size in Y ( = nPy*nSy*sNy ) */
(PID.TID 0000.0001)   nTiles =    2 ; /* Total no. tiles per process ( = nSx*nSy ) */
(PID.TID 0000.0001)   nProcs =    1 ; /* Total no. processes ( = nPx*nPy ) */
(PID.TID 0000.0001) nThreads =    1 ; /* Total no. threads per process ( = nTx*nTy ) */
(PID.TID 0000.0001) usingMPI =    F ; /* Flag used to control whether MPI is in use */
(PID.TID 0000.0001)                   /*  note: To execute a program with MPI calls */
(PID.TID 0000.0001)                   /*  it must be launched appropriately e.g     */
(PID.TID 0000.0001)                   /*  "mpirun -np 64 ......"                    */
(PID.TID 0000.0001) useCoupler=   F ; /* Flag used to control communications with   */
(PID.TID 0000.0001)                   /*  other model components, through a coupler */
(PID.TID 0000.0001) useNest2W_parent =    F ;/* Control 2-W Nesting comm */
(PID.TID 0000.0001) useNest2W_child  =    F ;/* Control 2-W Nesting comm */
(PID.TID 0000.0001) debugMode =    F ; /* print debug msg. (sequence of S/R calls)  */
(PID.TID 0000.0001) printMapIncludesZeros=    F ; /* print zeros in Std.Output maps */
(PID.TID 0000.0001) maxLengthPrt1D=   65 /* maxLength of 1D array printed to StdOut */
(PID.TID 0000.0001) 
(PID.TID 0000.0001) // ======================================================
(PID.TID 0000.0001) // Mapping of tiles to threads
(PID.TID 0000.0001) // ======================================================
(PID.TID 0000.0001) // -o- Thread   1, tiles (   1:   2,   1:   1)
(PID.TID 0000.0001) 
(PID.TID 0000.0001) // ======================================================
(PID.TID 0000.0001) // Tile <-> Tile connectvity table
(PID.TID 0000.0001) // ======================================================
(PID.TID 0000.0001) // Tile number: 000001 (process no. = 000000)
(PID.TID 0000.0001) //        WEST: Tile = 000002, Process = 000000, Comm = put
(PID.TID 0000.0001) //                bi = 000002, bj = 000001
(PID.TID 0000.0001) //        EAST: Tile = 000002, Process = 000000, Comm = put
(PID.TID 0000.0001) //                bi = 000002, bj = 000001
(PID.TID 0000.0001) //       SOUTH: Tile = 000001, Process = 000000, Comm = put
(PID.TID 0000.0001) //                bi = 000001, bj = 000001
(PID.TID 0000.0001) //       NORTH: Tile = 000001, Process = 000000, Comm = put
(PID.TID 0000.0001) //                bi = 000001, bj = 000001
(PID.TID 0000.0001) // Tile number: 000002 (process no. = 000000)
(PID.TID 0000.0001) //        WEST: Tile = 000001, Process = 000000, Comm = put
(PID.TID 0000.0001) //                bi = 000001, bj = 000001
(PID.TID 0000.0001) //        EAST: Tile = 000001, Process = 000000, Comm = put
(PID.TID 0000.0001) //                bi = 000001, bj = 000001
(PID.TID 0000.0001) //       SOUTH: Tile = 000002, Process = 000000, Comm = put
(PID.TID 0000.0001) //                bi = 000002, bj = 000001
(PID.TID 0000.0001) //       NORTH: Tile = 000002, Process = 000000, Comm = put
(PID.TID 0000.0001) //                bi = 000002, bj = 000001
(PID.TID 0000.0001) 
(PID.TID 0000.0001)  INI_PARMS: opening model parameter file "data"
(PID.TID 0000.0001)  OPEN_COPY_DATA_FILE: opening file data
(PID.TID 0000.0001) // =======================================================
(PID.TID 0000.0001) // Parameter file "data"
(PID.TID 0000.0001) // =======================================================
(PID.TID 0000.0001) ># ====================
(PID.TID 0000.0001) ># | Model parameters |
(PID.TID 0000.0001) ># ====================
(PID.TID 0000.0001) >#
(PID.TID 0000.0001) ># Continuous equation parameters
(PID.TID 0000.0001) >#
(PID.TID 0000.0001) >#   tRef            - Reference vertical potential temperature          (deg C)
(PID.TID 0000.0001) >#   sRef            - Reference vertical salinity                         (PSU)
(PID.TID 0000.0001) >#   viscAh          - Horizontal eddy viscosity coefficient             (m^2/s)
(PID.TID 0000.0001) >#   viscAz          - Vertical eddy viscosity coefficient               (m^2/s)
(PID.TID 0000.0001) >#   diffKhT         - Horizontal temperature diffusivity                (m^2/s)
(PID.TID 0000.0001) >#   diffKzT         - Vertical temperature diffusivity                  (m^2/s)
(PID.TID 0000.0001) >#   diffKhS         - Horizontal salt diffusivity                       (m^2/s)
(PID.TID 0000.0001) >#   diffKzS         - Vertical salt diffusivity                         (m^2/s)
(PID.TID 0000.0001) >#   gravity         - Acceleration due to gravity                       (m/s^2)
(PID.TID 0000.0001) >#   rigidLid        - Set to true to use rigid lid
(PID.TID 0000.0001) >#   implicitFreeSurface - Set to true to use implicit free surface
(PID.TID 0000.0001) >#   eosType         - Flag for linear or polynomial equation of state
(PID.TID 0000.0001) >#   momAdvection    - On/Off flag for momentum self transport
(PID.TID 0000.0001) >#   momViscosity    - On/Off flag for momentum mixing
(PID.TID 0000.0001) >#
(PID.TID 0000.0001) > &PARM01
(PID.TID 0000.0001) > tRef= 24.0 , 23.0 , 22.0 , 21.0 , 20.0 ,
(PID.TID 0000.0001) >       19.0 , 18.0 , 17.0 , 16.0 , 15.0 ,
(PID.TID 0000.0001) >       14.0 , 13.0 , 12.0 , 11.0 , 10.0 ,
(PID.TID 0000.0001) >        9.0 ,  8.0 ,  7.0 ,  6.0,   5.0 ,
(PID.TID 0000.0001) >        4.0 ,  3.0 ,  2.0 ,
(PID.TID 0000.0001) > sRef= 34.65, 34.75, 34.82, 34.87, 34.90,
(PID.TID 0000.0001) >       34.90, 34.86, 34.78, 34.69, 34.60,
(PID.TID 0000.0001) >       34.58, 34.62, 34.68, 34.72, 34.73,
(PID.TID 0000.0001) >       34.74, 34.73, 34.73, 34.72, 34.72,
(PID.TID 0000.0001) >       34.71, 34.70, 34.69,
(PID.TID 0000.0001) > no_slip_sides=.FALSE.,
(PID.TID 0000.0001) > no_slip_bottom=.TRUE.,
(PID.TID 0000.0001) > viscAz=1.93e-5,
(PID.TID 0000.0001) > viscAh=5.E4,
(PID.TID 0000.0001) > diffKhT=0.0,
(PID.TID 0000.0001) > diffKzT=1.46e-5,
(PID.TID 0000.0001) > diffKhS=0.0,
(PID.TID 0000.0001) > diffKzS=1.46e-5,
(PID.TID 0000.0001) > rigidLid=.FALSE.,
(PID.TID 0000.0001) > implicitFreeSurface=.TRUE.,
(PID.TID 0000.0001) > eosType='JMD95Z',
(PID.TID 0000.0001) > saltStepping=.TRUE.,
(PID.TID 0000.0001) > tempStepping=.TRUE.,
(PID.TID 0000.0001) > momStepping=.TRUE.,
(PID.TID 0000.0001) > implicitDiffusion=.TRUE.,
(PID.TID 0000.0001) > implicitViscosity=.TRUE.,
(PID.TID 0000.0001) > staggerTimeStep=.TRUE.,
(PID.TID 0000.0001) > tempAdvScheme =7,
(PID.TID 0000.0001) > saltAdvScheme =7,
(PID.TID 0000.0001) > convertFW2Salt=-1,
(PID.TID 0000.0001) > allowFreezing=.FALSE.,
(PID.TID 0000.0001) >#- set wrong celsius2K to reproduce old results:
(PID.TID 0000.0001) > celsius2K=273.16,
(PID.TID 0000.0001) > HeatCapacity_Cp = 3986.D0,
(PID.TID 0000.0001) > gravity         = 9.8156,
(PID.TID 0000.0001) > rhoConst        = 1027.D0,
(PID.TID 0000.0001) > rhoConstFresh   = 999.8,
(PID.TID 0000.0001) > useSingleCpuIO=.TRUE.,
(PID.TID 0000.0001) > readBinaryPrec=32,
(PID.TID 0000.0001) > writeBinaryPrec=32,
(PID.TID 0000.0001) > /
(PID.TID 0000.0001) >
(PID.TID 0000.0001) ># Elliptic solver parameters
(PID.TID 0000.0001) >#
(PID.TID 0000.0001) >#   cg2dMaxIters       - Maximum number of 2d solver iterations
(PID.TID 0000.0001) >#   cg2dTargetResidual - Solver target residual
(PID.TID 0000.0001) >#
(PID.TID 0000.0001) > &PARM02
(PID.TID 0000.0001) > cg2dMaxIters=500,
(PID.TID 0000.0001) > cg2dTargetResidual=1.E-12,
(PID.TID 0000.0001) > /
(PID.TID 0000.0001) >
(PID.TID 0000.0001) ># Time stepping parameters
(PID.TID 0000.0001) >#
(PID.TID 0000.0001) >#   startTime         - Integration starting time                (s)
(PID.TID 0000.0001) >#   endTime           - Integration ending time                  (s)
(PID.TID 0000.0001) >#   deltaTMom         - Timestep for momemtum equations          (s)
(PID.TID 0000.0001) >#   deltaTtracer      - Tracer timestep                          (s)
(PID.TID 0000.0001) >#   deltaTClock       - Timestep used as model "clock"           (s)
(PID.TID 0000.0001) >#   abEps             - Adams-Bashforth stabilising factor
(PID.TID 0000.0001) >#   pChkPtFreq        - Frequency of permanent check pointing    (s)
(PID.TID 0000.0001) >#   chkPtFreq         - Frequency of rolling check pointing      (s)
(PID.TID 0000.0001) >#   dumpFreq          - Frequency at which model state is stored (s)
(PID.TID 0000.0001) >#   tauThetaClimRelax - Relaxation to climatology time scale     (s)
(PID.TID 0000.0001) >#   tauSaltClimRelax  - Relaxation to climatology time scale     (s)
(PID.TID 0000.0001) >#
(PID.TID 0000.0001) > &PARM03
(PID.TID 0000.0001) > startTime=3600.0,
(PID.TID 0000.0001) > endTime=21600.,
(PID.TID 0000.0001) > deltaTmom=3600.0,
(PID.TID 0000.0001) > deltaTtracer=3600.0,
(PID.TID 0000.0001) > deltaTClock =3600.0,
(PID.TID 0000.0001) > cAdjFreq=0.,
(PID.TID 0000.0001) > abEps=0.1,
(PID.TID 0000.0001) > forcing_In_AB = .FALSE.,
(PID.TID 0000.0001) > pChkptFreq=36000.,
(PID.TID 0000.0001) > chkptFreq= 0.,
(PID.TID 0000.0001) > dumpFreq = 0.,
(PID.TID 0000.0001) > monitorFreq=1.,
(PID.TID 0000.0001) > pickupStrictlyMatch=.FALSE.,
(PID.TID 0000.0001) > /
(PID.TID 0000.0001) >
(PID.TID 0000.0001) ># Gridding parameters
(PID.TID 0000.0001) >#
(PID.TID 0000.0001) >#   usingSphericalPolarGrid - On/Off flag for spherical polar coordinates
(PID.TID 0000.0001) >#   delX                    - Zonal grid spacing         (degrees)
(PID.TID 0000.0001) >#   delY                    - Meridional grid spacing    (degrees)
(PID.TID 0000.0001) >#   delZ                    - Vertical grid spacing      (m)
(PID.TID 0000.0001) >#   ygOrigin                - Southern boundary latitude (degrees)
(PID.TID 0000.0001) >#
(PID.TID 0000.0001) > &PARM04
(PID.TID 0000.0001) > usingSphericalPolarGrid=.TRUE.,
(PID.TID 0000.0001) > delX=10*2.E0,
(PID.TID 0000.0001) > delY= 8*2.E0,
(PID.TID 0000.0001) > delZ= 10., 10., 15., 20., 20., 25., 35., 50., 75.,
(PID.TID 0000.0001) >       100., 150., 200., 275., 350., 415., 450.,
(PID.TID 0000.0001) >       500., 500., 500., 500., 500., 500., 500.,
(PID.TID 0000.0001) > ygOrigin=46.,
(PID.TID 0000.0001) > xgOrigin=280.,
(PID.TID 0000.0001) > rSphere = 6371.D3,
(PID.TID 0000.0001) > /
(PID.TID 0000.0001) >
(PID.TID 0000.0001) ># Input datasets
(PID.TID 0000.0001) >#
(PID.TID 0000.0001) >#   bathyFile       - File containing bathymetry
(PID.TID 0000.0001) >#   hydrogThetaFile - File containing initial potential temperature data
(PID.TID 0000.0001) >#   hydrogSaltFile  - File containing initial salinity data
(PID.TID 0000.0001) >#   zonalWindFile   - File containing zonal wind data
(PID.TID 0000.0001) >#   meridWindFile   - File containing meridional wind data
(PID.TID 0000.0001) >#   thetaClimFile   - File containing theta climatology used for relaxation
(PID.TID 0000.0001) >#   saltClimFile    - File containing salt climatology used for relaxation
(PID.TID 0000.0001) >#
(PID.TID 0000.0001) > &PARM05
(PID.TID 0000.0001) > bathyFile       = 'bathy.seaice_obcs',
(PID.TID 0000.0001) > /
(PID.TID 0000.0001) 
(PID.TID 0000.0001)  INI_PARMS ; starts to read PARM01
(PID.TID 0000.0001)  INI_PARMS ; read PARM01 : OK
(PID.TID 0000.0001)  INI_PARMS ; starts to read PARM02
(PID.TID 0000.0001)  INI_PARMS ; read PARM02 : OK
(PID.TID 0000.0001)  INI_PARMS ; starts to read PARM03
(PID.TID 0000.0001)  INI_PARMS ; read PARM03 : OK
(PID.TID 0000.0001)  INI_PARMS ; starts to read PARM04
(PID.TID 0000.0001)  INI_PARMS ; read PARM04 : OK
(PID.TID 0000.0001)  INI_PARMS ; starts to read PARM05
(PID.TID 0000.0001)  INI_PARMS ; read PARM05 : OK
(PID.TID 0000.0001)  INI_PARMS: finished reading file "data"
(PID.TID 0000.0001)  PACKAGES_BOOT: opening data.pkg
(PID.TID 0000.0001)  OPEN_COPY_DATA_FILE: opening file data.pkg
(PID.TID 0000.0001) // =======================================================
(PID.TID 0000.0001) // Parameter file "data.pkg"
(PID.TID 0000.0001) // =======================================================
(PID.TID 0000.0001) ># Packages
(PID.TID 0000.0001) > &PACKAGES
(PID.TID 0000.0001) >  useGMRedi = .TRUE.,
(PID.TID 0000.0001) >  useKPP    = .TRUE.,
(PID.TID 0000.0001) >  useEXF    = .TRUE.,
(PID.TID 0000.0001) >  useCAL    = .TRUE.,
(PID.TID 0000.0001) >  useSEAICE = .TRUE.,
(PID.TID 0000.0001) >  useSALT_PLUME  = .TRUE.,
(PID.TID 0000.0001) >  useOBCS        = .TRUE.,
(PID.TID 0000.0001) > /
(PID.TID 0000.0001) 
(PID.TID 0000.0001)  PACKAGES_BOOT: finished reading data.pkg
(PID.TID 0000.0001)  PACKAGES_BOOT: On/Off package Summary
 --------  pkgs with a standard "usePKG" On/Off switch in "data.pkg":  --------
 pkg/obcs                 compiled   and   used ( useOBCS                  = T )
 pkg/kpp                  compiled   and   used ( useKPP                   = T )
 pkg/gmredi               compiled   and   used ( useGMRedi                = T )
 pkg/cal                  compiled   and   used ( useCAL                   = T )
 pkg/exf                  compiled   and   used ( useEXF                   = T )
 pkg/seaice               compiled   and   used ( useSEAICE                = T )
 pkg/salt_plume           compiled   and   used ( useSALT_PLUME            = T )
 -------- pkgs without standard "usePKG" On/Off switch in "data.pkg":  --------
 pkg/generic_advdiff      compiled   and   used ( useGAD                   = T )
 pkg/mom_common           compiled   and   used ( momStepping              = T )
 pkg/mom_vecinv           compiled but not used ( +vectorInvariantMomentum = F )
 pkg/mom_fluxform         compiled   and   used ( & not vectorInvariantMom = T )
 pkg/monitor              compiled   and   used ( monitorFreq > 0.         = T )
 pkg/debug                compiled but not used ( debugMode                = F )
 pkg/rw                   compiled   and   used
 pkg/mdsio                compiled   and   used
(PID.TID 0000.0001)  PACKAGES_BOOT: End of package Summary
(PID.TID 0000.0001) 
(PID.TID 0000.0001) CAL_READPARMS: opening data.cal
(PID.TID 0000.0001)  OPEN_COPY_DATA_FILE: opening file data.cal
(PID.TID 0000.0001) // =======================================================
(PID.TID 0000.0001) // Parameter file "data.cal"
(PID.TID 0000.0001) // =======================================================
(PID.TID 0000.0001) >#
(PID.TID 0000.0001) ># *******************
(PID.TID 0000.0001) ># Calendar Parameters
(PID.TID 0000.0001) ># *******************
(PID.TID 0000.0001) > &CAL_NML
(PID.TID 0000.0001) > TheCalendar='gregorian',
(PID.TID 0000.0001) > startDate_1=19790101,
(PID.TID 0000.0001) > startDate_2=000000,
(PID.TID 0000.0001) > /
(PID.TID 0000.0001) 
(PID.TID 0000.0001) CAL_READPARMS: finished reading data.cal
(PID.TID 0000.0001) EXF_READPARMS: opening data.exf
(PID.TID 0000.0001)  OPEN_COPY_DATA_FILE: opening file data.exf
(PID.TID 0000.0001) // =======================================================
(PID.TID 0000.0001) // Parameter file "data.exf"
(PID.TID 0000.0001) // =======================================================
(PID.TID 0000.0001) >#
(PID.TID 0000.0001) ># *********************
(PID.TID 0000.0001) ># External Forcing Data
(PID.TID 0000.0001) ># *********************
(PID.TID 0000.0001) > &EXF_NML_01
(PID.TID 0000.0001) >#
(PID.TID 0000.0001) > useExfCheckRange  = .TRUE.,
(PID.TID 0000.0001) > repeatPeriod      = 31622400.0,
(PID.TID 0000.0001) > exf_iprec         = 32,
(PID.TID 0000.0001) >#
(PID.TID 0000.0001) > /
(PID.TID 0000.0001) >
(PID.TID 0000.0001) ># *********************
(PID.TID 0000.0001) > &EXF_NML_02
(PID.TID 0000.0001) >#
(PID.TID 0000.0001) > hfluxstartdate1   = 19781216,
(PID.TID 0000.0001) > hfluxstartdate2   = 180000,
(PID.TID 0000.0001) > hfluxperiod       = 2635200.0,
(PID.TID 0000.0001) >#
(PID.TID 0000.0001) > sfluxstartdate1   = 19781216,
(PID.TID 0000.0001) > sfluxstartdate2   = 180000,
(PID.TID 0000.0001) > sfluxperiod       = 2635200.0,
(PID.TID 0000.0001) >#
(PID.TID 0000.0001) > ustressstartdate1 = 19781216,
(PID.TID 0000.0001) > ustressstartdate2 = 180000,
(PID.TID 0000.0001) > ustressperiod     = 2635200.0,
(PID.TID 0000.0001) >#
(PID.TID 0000.0001) > vstressstartdate1 = 19781216,
(PID.TID 0000.0001) > vstressstartdate2 = 180000,
(PID.TID 0000.0001) > vstressperiod     = 2635200.0,
(PID.TID 0000.0001) >#
(PID.TID 0000.0001) > atempstartdate1   = 19781216,
(PID.TID 0000.0001) > atempstartdate2   = 180000,
(PID.TID 0000.0001) > atempperiod       = 2635200.0,
(PID.TID 0000.0001) >#
(PID.TID 0000.0001) > aqhstartdate1     = 19781216,
(PID.TID 0000.0001) > aqhstartdate2     = 180000,
(PID.TID 0000.0001) > aqhperiod         = 2635200.0,
(PID.TID 0000.0001) >#
(PID.TID 0000.0001) >#evapstartdate1    = 19781216,
(PID.TID 0000.0001) >#evapstartdate2    = 180000,
(PID.TID 0000.0001) >#evapperiod        = 2635200.0,
(PID.TID 0000.0001) >#
(PID.TID 0000.0001) > precipstartdate1  = 19781216,
(PID.TID 0000.0001) > precipstartdate2  = 180000,
(PID.TID 0000.0001) > precipperiod      = 2635200.0,
(PID.TID 0000.0001) >#
(PID.TID 0000.0001) > uwindstartdate1   = 19781216,
(PID.TID 0000.0001) > uwindstartdate2   = 180000,
(PID.TID 0000.0001) > uwindperiod       = 2635200.0,
(PID.TID 0000.0001) >#
(PID.TID 0000.0001) > vwindstartdate1   = 19781216,
(PID.TID 0000.0001) > vwindstartdate2   = 180000,
(PID.TID 0000.0001) > vwindperiod       = 2635200.0,
(PID.TID 0000.0001) >#
(PID.TID 0000.0001) > swfluxstartdate1  = 19781216,
(PID.TID 0000.0001) > swfluxstartdate2  = 180000,
(PID.TID 0000.0001) > swfluxperiod      = 2635200.0,
(PID.TID 0000.0001) >#
(PID.TID 0000.0001) > lwfluxstartdate1  = 19781216,
(PID.TID 0000.0001) > lwfluxstartdate2  = 180000,
(PID.TID 0000.0001) > lwfluxperiod      = 2635200.0,
(PID.TID 0000.0001) >#
(PID.TID 0000.0001) > swdownstartdate1  = 19781216,
(PID.TID 0000.0001) > swdownstartdate2  = 180000,
(PID.TID 0000.0001) > swdownperiod      = 2635200.0,
(PID.TID 0000.0001) >#
(PID.TID 0000.0001) > lwdownstartdate1  = 19781216,
(PID.TID 0000.0001) > lwdownstartdate2  = 180000,
(PID.TID 0000.0001) > lwdownperiod      = 2635200.0,
(PID.TID 0000.0001) >#
(PID.TID 0000.0001) > climsststartdate1  = 19781216,
(PID.TID 0000.0001) > climsststartdate2  = 180000,
(PID.TID 0000.0001) > climsstperiod      = 2635200.0,
(PID.TID 0000.0001) > climsstTauRelax    = 0.0,
(PID.TID 0000.0001) >#
(PID.TID 0000.0001) > climsssstartdate1  = 19781216,
(PID.TID 0000.0001) > climsssstartdate2  = 180000,
(PID.TID 0000.0001) > climsssperiod      = 2635200.0,
(PID.TID 0000.0001) > climsssTauRelax    = 4142330.0,
(PID.TID 0000.0001) >#
(PID.TID 0000.0001) > hfluxfile         = ' ',
(PID.TID 0000.0001) > sfluxfile         = ' ',
(PID.TID 0000.0001) > ustressfile       = ' ',
(PID.TID 0000.0001) > vstressfile       = ' ',
(PID.TID 0000.0001) > atempfile         = 'tair.labsea1979',
(PID.TID 0000.0001) > aqhfile           = 'qa.labsea1979',
(PID.TID 0000.0001) > uwindfile         = 'u10m.labsea1979',
(PID.TID 0000.0001) > vwindfile         = 'v10m.labsea1979',
(PID.TID 0000.0001) >#evapfile          = 'evap.labsea1979',
(PID.TID 0000.0001) > precipfile        = 'prate.labsea1979',
(PID.TID 0000.0001) > lwfluxfile        = ' ',
(PID.TID 0000.0001) > swfluxfile        = ' ',
(PID.TID 0000.0001) > lwdownfile        = 'flo.labsea1979',
(PID.TID 0000.0001) > swdownfile        = 'fsh.labsea1979',
(PID.TID 0000.0001) > runoffFile        = ' '
(PID.TID 0000.0001) > climsstfile       = ' ',
(PID.TID 0000.0001) > climsssfile       = 'SSS_monthly.labsea1979',
(PID.TID 0000.0001) >#
(PID.TID 0000.0001) > /
(PID.TID 0000.0001) >
(PID.TID 0000.0001) ># *********************
(PID.TID 0000.0001) > &EXF_NML_03
(PID.TID 0000.0001) > /
(PID.TID 0000.0001) >
(PID.TID 0000.0001) ># *********************
(PID.TID 0000.0001) ># old open64 compiler (4.2.1) cannot skip this namelist to read in the next one;
(PID.TID 0000.0001) ># comment out this namelist (not read).
(PID.TID 0000.0001) >#&EXF_NML_04
(PID.TID 0000.0001) >#&
(PID.TID 0000.0001) >
(PID.TID 0000.0001) ># *********************
(PID.TID 0000.0001) > &EXF_NML_OBCS
(PID.TID 0000.0001) > obcsSstartdate1   = 19790101,
(PID.TID 0000.0001) > obcsSstartdate2   = 000000,
(PID.TID 0000.0001) > obcsSperiod       = 3600.0,
(PID.TID 0000.0001) >#
(PID.TID 0000.0001) > obcsNstartdate1   = 19790101,
(PID.TID 0000.0001) > obcsNstartdate2   = 000000,
(PID.TID 0000.0001) > obcsNperiod       = 3600.0,
(PID.TID 0000.0001) >#
(PID.TID 0000.0001) > obcsWstartdate1   = 19790101,
(PID.TID 0000.0001) > obcsWstartdate2   = 000000,
(PID.TID 0000.0001) > obcsWperiod       = 3600.0,
(PID.TID 0000.0001) >#
(PID.TID 0000.0001) > obcsEstartdate1   = 19790101,
(PID.TID 0000.0001) > obcsEstartdate2   = 000000,
(PID.TID 0000.0001) > obcsEperiod       = 3600.0,
(PID.TID 0000.0001) >#
(PID.TID 0000.0001) > siobSstartdate1   = 19790101,
(PID.TID 0000.0001) > siobSstartdate2   = 000000,
(PID.TID 0000.0001) > siobSperiod       = 3600.0,
(PID.TID 0000.0001) >#
(PID.TID 0000.0001) > siobNstartdate1   = 19790101,
(PID.TID 0000.0001) > siobNstartdate2   = 000000,
(PID.TID 0000.0001) > siobNperiod       = 3600.0,
(PID.TID 0000.0001) >#
(PID.TID 0000.0001) > siobWstartdate1   = 19790101,
(PID.TID 0000.0001) > siobWstartdate2   = 000000,
(PID.TID 0000.0001) > siobWperiod       = 3600.0,
(PID.TID 0000.0001) > /
(PID.TID 0000.0001) 
(PID.TID 0000.0001) EXF_READPARMS: reading EXF_NML_01
(PID.TID 0000.0001) EXF_READPARMS: reading EXF_NML_02
(PID.TID 0000.0001) EXF_READPARMS: reading EXF_NML_03
(PID.TID 0000.0001) EXF_READPARMS: reading EXF_NML_OBCS
(PID.TID 0000.0001) EXF_READPARMS: finished reading data.exf
(PID.TID 0000.0001)  OBCS_READPARMS: opening data.obcs
(PID.TID 0000.0001)  OPEN_COPY_DATA_FILE: opening file data.obcs
(PID.TID 0000.0001) // =======================================================
(PID.TID 0000.0001) // Parameter file "data.obcs"
(PID.TID 0000.0001) // =======================================================
(PID.TID 0000.0001) ># ***************
(PID.TID 0000.0001) ># Open boundaries
(PID.TID 0000.0001) ># ***************
(PID.TID 0000.0001) > &OBCS_PARM01
(PID.TID 0000.0001) > OB_Jsouth =   10*1,
(PID.TID 0000.0001) > OB_Jnorth =   10*8,
(PID.TID 0000.0001) > OB_Iwest  =   8*1,
(PID.TID 0000.0001) > OB_Ieast  =   8*10,
(PID.TID 0000.0001) ># This flag check and equalise topography across open boundaries:
(PID.TID 0000.0001) > OBCSfixTopo = .TRUE.,
(PID.TID 0000.0001) > useOBCSprescribe=.TRUE.,
(PID.TID 0000.0001) >#
(PID.TID 0000.0001) > OBSsFile='OBSs.seaice_obcs',
(PID.TID 0000.0001) > OBStFile='OBSt.seaice_obcs',
(PID.TID 0000.0001) > OBSuFile='OBSu.seaice_obcs',
(PID.TID 0000.0001) > OBSvFile='OBSv.seaice_obcs',
(PID.TID 0000.0001) > OBNsFile='OBNs.seaice_obcs',
(PID.TID 0000.0001) > OBNtFile='OBNt.seaice_obcs',
(PID.TID 0000.0001) > OBNuFile='OBNu.seaice_obcs',
(PID.TID 0000.0001) > OBNvFile='OBNv.seaice_obcs',
(PID.TID 0000.0001) > OBWsFile='OBWs.seaice_obcs',
(PID.TID 0000.0001) > OBWtFile='OBWt.seaice_obcs',
(PID.TID 0000.0001) > OBWuFile='OBWu.seaice_obcs',
(PID.TID 0000.0001) > OBWvFile='OBWv.seaice_obcs',
(PID.TID 0000.0001) > OBEsFile='OBEs.seaice_obcs',
(PID.TID 0000.0001) > OBEtFile='OBEt.seaice_obcs',
(PID.TID 0000.0001) > OBEuFile='OBEu.seaice_obcs',
(PID.TID 0000.0001) > OBEvFile='OBEv.seaice_obcs',
(PID.TID 0000.0001) >#
(PID.TID 0000.0001) > OBShFile='OBSh.seaice_obcs',
(PID.TID 0000.0001) > OBNhFile='OBNh.seaice_obcs',
(PID.TID 0000.0001) > OBEhFile='OBEh.seaice_obcs',
(PID.TID 0000.0001) > OBWhFile='OBWh.seaice_obcs',
(PID.TID 0000.0001) > OBSaFile='OBSa.seaice_obcs',
(PID.TID 0000.0001) > OBNaFile='OBNa.seaice_obcs',
(PID.TID 0000.0001) > OBEaFile='OBEa.seaice_obcs',
(PID.TID 0000.0001) > OBWaFile='OBWa.seaice_obcs',
(PID.TID 0000.0001) > OBSsnFile='OBSsn.seaice_obcs',
(PID.TID 0000.0001) > OBNsnFile='OBNsn.seaice_obcs',
(PID.TID 0000.0001) > OBEsnFile='OBEsn.seaice_obcs',
(PID.TID 0000.0001) > OBWsnFile='OBWsn.seaice_obcs',
(PID.TID 0000.0001) > OBSslFile='OBSsl.seaice_obcs',
(PID.TID 0000.0001) > OBNslFile='OBNsl.seaice_obcs',
(PID.TID 0000.0001) > OBEslFile='OBEsl.seaice_obcs',
(PID.TID 0000.0001) > OBWslFile='OBWsl.seaice_obcs',
(PID.TID 0000.0001) > OBSuiceFile='OBSuice.seaice_obcs',
(PID.TID 0000.0001) > OBNuiceFile='OBNuice.seaice_obcs',
(PID.TID 0000.0001) > OBEuiceFile='OBEuice.seaice_obcs',
(PID.TID 0000.0001) > OBWuiceFile='OBWuice.seaice_obcs',
(PID.TID 0000.0001) > OBSviceFile='OBSvice.seaice_obcs',
(PID.TID 0000.0001) > OBNviceFile='OBNvice.seaice_obcs',
(PID.TID 0000.0001) > OBEviceFile='OBEvice.seaice_obcs',
(PID.TID 0000.0001) > OBWviceFile='OBWvice.seaice_obcs',
(PID.TID 0000.0001) > /
(PID.TID 0000.0001) 
(PID.TID 0000.0001)  OBCS_READPARMS: finished reading data.obcs
(PID.TID 0000.0001)  OB_indexUnset = /* unset OB index value (i.e. no OB) */
(PID.TID 0000.0001)                       0
(PID.TID 0000.0001)     ;
(PID.TID 0000.0001)  Northern OB global indices : OB_Jnorth =
(PID.TID 0000.0001)    10 @        8                            /* I =  1: 10 */
(PID.TID 0000.0001)  Southern OB global indices : OB_Jsouth =
(PID.TID 0000.0001)    10 @        1                            /* I =  1: 10 */
(PID.TID 0000.0001)  Eastern  OB global indices : OB_Ieast =
(PID.TID 0000.0001)     8 @       10                            /* J =  1:  8 */
(PID.TID 0000.0001)  Western  OB global indices : OB_Iwest =
(PID.TID 0000.0001)     8 @        1                            /* J =  1:  8 */
(PID.TID 0000.0001) 
(PID.TID 0000.0001)  KPP_READPARMS: opening data.kpp
(PID.TID 0000.0001)  OPEN_COPY_DATA_FILE: opening file data.kpp
(PID.TID 0000.0001) // =======================================================
(PID.TID 0000.0001) // Parameter file "data.kpp"
(PID.TID 0000.0001) // =======================================================
(PID.TID 0000.0001) ># KPP parameters
(PID.TID 0000.0001) > &KPP_PARM01
(PID.TID 0000.0001) > KPPmixingMaps   = .FALSE.,
(PID.TID 0000.0001) > KPPwriteState   = .TRUE.,
(PID.TID 0000.0001) > KPP_ghatUseTotalDiffus=.TRUE.,
(PID.TID 0000.0001) > /
(PID.TID 0000.0001) 
(PID.TID 0000.0001)  KPP_READPARMS ; starts to read KPP_PARM01
(PID.TID 0000.0001)  KPP_READPARMS ; read KPP_PARM01 : OK
(PID.TID 0000.0001)  KPP_READPARMS: finished reading data.kpp
(PID.TID 0000.0001)  GM_READPARMS: opening data.gmredi
(PID.TID 0000.0001)  OPEN_COPY_DATA_FILE: opening file data.gmredi
(PID.TID 0000.0001) // =======================================================
(PID.TID 0000.0001) // Parameter file "data.gmredi"
(PID.TID 0000.0001) // =======================================================
(PID.TID 0000.0001) ># GMREDI parameters
(PID.TID 0000.0001) > &GM_PARM01
(PID.TID 0000.0001) >  GM_background_K = 571.0
(PID.TID 0000.0001) >  GM_taper_scheme = 'ldd97'
(PID.TID 0000.0001) > /
(PID.TID 0000.0001) 
(PID.TID 0000.0001)  GM_READPARMS: finished reading data.gmredi
(PID.TID 0000.0001) 
(PID.TID 0000.0001)  SEAICE_READPARMS: opening data.seaice
(PID.TID 0000.0001)  OPEN_COPY_DATA_FILE: opening file data.seaice
(PID.TID 0000.0001) // =======================================================
(PID.TID 0000.0001) // Parameter file "data.seaice"
(PID.TID 0000.0001) // =======================================================
(PID.TID 0000.0001) ># SEAICE parameters
(PID.TID 0000.0001) > &SEAICE_PARM01
(PID.TID 0000.0001) >#- seaice dynamics params:
(PID.TID 0000.0001) >  LSR_ERROR          = 1.E-12,
(PID.TID 0000.0001) ># LSR_mixIniGuess=1 : compute free-drift residual; =2,4 mix into initial guess
(PID.TID 0000.0001) >  LSR_mixIniGuess    = 1,
(PID.TID 0000.0001) >#- seaice state & transport params:
(PID.TID 0000.0001) >  SEAICEadvScheme    = 7,
(PID.TID 0000.0001) ># for adjoint simulations you will need
(PID.TID 0000.0001) ># SEAICEadvScheme    = 30,
(PID.TID 0000.0001) ># add small diffKh to test diffusion with multi-dim advect.
(PID.TID 0000.0001) >  SEAICEdiffKhArea   = 20.,
(PID.TID 0000.0001) >  SEAICE_salinityTracer = .FALSE.,
(PID.TID 0000.0001) >  SEAICE_saltFrac    = 0.3,
(PID.TID 0000.0001) >#- seaice thermodyn params:
(PID.TID 0000.0001) >  SEAICE_multDim     = 7,
(PID.TID 0000.0001) >#- constant seawater freezing point:
(PID.TID 0000.0001) >  SEAICE_tempFrz0    = -1.96,
(PID.TID 0000.0001) >  SEAICE_dTempFrz_dS = 0.,
(PID.TID 0000.0001) >#- to reproduce old results with former #defined SEAICE_SOLVE4TEMP_LEGACY code
(PID.TID 0000.0001) >    useMaykutSatVapPoly = .TRUE.,
(PID.TID 0000.0001) >    postSolvTempIter    =  0,
(PID.TID 0000.0001) >  SEAICE_dryIceAlb   = 0.8756,
(PID.TID 0000.0001) >  SEAICE_wetIceAlb   = 0.7856,
(PID.TID 0000.0001) >  SEAICE_drySnowAlb  = 0.9656,
(PID.TID 0000.0001) >  SEAICE_wetSnowAlb  = 0.8256,
(PID.TID 0000.0001) >  SEAICE_strength    = 2.6780e+04,
(PID.TID 0000.0001) ># use the new standard way of specifying ocean-ice turb. flux coeff:
(PID.TID 0000.0001) >  SEAICE_mcPheePiston= 0.00004,
(PID.TID 0000.0001) >  SEAICE_frazilFrac  = 0.3,
(PID.TID 0000.0001) >#- seaice I/O params:
(PID.TID 0000.0001) >  SEAICEwriteState   = .TRUE.,
(PID.TID 0000.0001) ># old defaults
(PID.TID 0000.0001) > SEAICEscaleSurfStress = .FALSE.,
(PID.TID 0000.0001) > SEAICEaddSnowMass     = .FALSE.,
(PID.TID 0000.0001) > SEAICE_useMultDimSnow = .FALSE.,
(PID.TID 0000.0001) > SEAICEetaZmethod = 0,
(PID.TID 0000.0001) > SEAICE_drag = 0.002,
(PID.TID 0000.0001) > SEAICE_waterDrag = 0.0052101265822784805,
(PID.TID 0000.0001) > SEAICE_Olx = 0,
(PID.TID 0000.0001) > SEAICE_Oly = 0,
(PID.TID 0000.0001) > /
(PID.TID 0000.0001) >
(PID.TID 0000.0001) > &SEAICE_PARM03
(PID.TID 0000.0001) > /
(PID.TID 0000.0001) 
(PID.TID 0000.0001)  SEAICE_READPARMS: finished reading data.seaice
(PID.TID 0000.0001) SALT_PLUME_READPARMS: opening data.salt_plume
(PID.TID 0000.0001)  OPEN_COPY_DATA_FILE: opening file data.salt_plume
(PID.TID 0000.0001) // =======================================================
(PID.TID 0000.0001) // Parameter file "data.salt_plume"
(PID.TID 0000.0001) // =======================================================
(PID.TID 0000.0001) > &SALT_PLUME_PARM01
(PID.TID 0000.0001) > SaltPlumeCriterion = 0.4D0
(PID.TID 0000.0001) > /
(PID.TID 0000.0001) 
(PID.TID 0000.0001) SALT_PLUME_READPARMS: finished reading data.salt_plume
(PID.TID 0000.0001) SET_PARMS: done
(PID.TID 0000.0001) Enter INI_VERTICAL_GRID: setInterFDr=    T ; setCenterDr=    F
(PID.TID 0000.0001) %MON XC_max                       =   2.9900000000000E+02
(PID.TID 0000.0001) %MON XC_min                       =   2.8100000000000E+02
(PID.TID 0000.0001) %MON XC_mean                      =   2.9000000000000E+02
(PID.TID 0000.0001) %MON XC_sd                        =   5.7445626465380E+00
(PID.TID 0000.0001) %MON XG_max                       =   2.9800000000000E+02
(PID.TID 0000.0001) %MON XG_min                       =   2.8000000000000E+02
(PID.TID 0000.0001) %MON XG_mean                      =   2.8900000000000E+02
(PID.TID 0000.0001) %MON XG_sd                        =   5.7445626465380E+00
(PID.TID 0000.0001) %MON DXC_max                      =   1.5166951523772E+05
(PID.TID 0000.0001) %MON DXC_min                      =   1.0781674031974E+05
(PID.TID 0000.0001) %MON DXC_mean                     =   1.3029977093092E+05
(PID.TID 0000.0001) %MON DXC_sd                       =   1.4367575782905E+04
(PID.TID 0000.0001) %MON DXF_max                      =   1.5166951523772E+05
(PID.TID 0000.0001) %MON DXF_min                      =   1.0781674031974E+05
(PID.TID 0000.0001) %MON DXF_mean                     =   1.3029977093092E+05
(PID.TID 0000.0001) %MON DXF_sd                       =   1.4367575782905E+04
(PID.TID 0000.0001) %MON DXG_max                      =   1.5448497309243E+05
(PID.TID 0000.0001) %MON DXG_min                      =   1.1119492664456E+05
(PID.TID 0000.0001) %MON DXG_mean                     =   1.3340987946475E+05
(PID.TID 0000.0001) %MON DXG_sd                       =   1.4183553519597E+04
(PID.TID 0000.0001) %MON DXV_max                      =   1.5448497309243E+05
(PID.TID 0000.0001) %MON DXV_min                      =   1.1119492664456E+05
(PID.TID 0000.0001) %MON DXV_mean                     =   1.3340987946475E+05
(PID.TID 0000.0001) %MON DXV_sd                       =   1.4183553519597E+04
(PID.TID 0000.0001) %MON YC_max                       =   6.1000000000000E+01
(PID.TID 0000.0001) %MON YC_min                       =   4.7000000000000E+01
(PID.TID 0000.0001) %MON YC_mean                      =   5.4000000000000E+01
(PID.TID 0000.0001) %MON YC_sd                        =   4.5825756949558E+00
(PID.TID 0000.0001) %MON YG_max                       =   6.0000000000000E+01
(PID.TID 0000.0001) %MON YG_min                       =   4.6000000000000E+01
(PID.TID 0000.0001) %MON YG_mean                      =   5.3000000000000E+01
(PID.TID 0000.0001) %MON YG_sd                        =   4.5825756949558E+00
(PID.TID 0000.0001) %MON DYC_max                      =   2.2238985328912E+05
(PID.TID 0000.0001) %MON DYC_min                      =   2.2238985328912E+05
(PID.TID 0000.0001) %MON DYC_mean                     =   2.2238985328912E+05
(PID.TID 0000.0001) %MON DYC_sd                       =   8.7311491370201E-11
(PID.TID 0000.0001) %MON DYF_max                      =   2.2238985328912E+05
(PID.TID 0000.0001) %MON DYF_min                      =   2.2238985328912E+05
(PID.TID 0000.0001) %MON DYF_mean                     =   2.2238985328912E+05
(PID.TID 0000.0001) %MON DYF_sd                       =   8.7311491370201E-11
(PID.TID 0000.0001) %MON DYG_max                      =   2.2238985328912E+05
(PID.TID 0000.0001) %MON DYG_min                      =   2.2238985328912E+05
(PID.TID 0000.0001) %MON DYG_mean                     =   2.2238985328912E+05
(PID.TID 0000.0001) %MON DYG_sd                       =   8.7311491370201E-11
(PID.TID 0000.0001) %MON DYU_max                      =   2.2238985328912E+05
(PID.TID 0000.0001) %MON DYU_min                      =   2.2238985328912E+05
(PID.TID 0000.0001) %MON DYU_mean                     =   2.2238985328912E+05
(PID.TID 0000.0001) %MON DYU_sd                       =   8.7311491370201E-11
(PID.TID 0000.0001) %MON RA_max                       =   3.3728048822756E+10
(PID.TID 0000.0001) %MON RA_min                       =   2.3976131760657E+10
(PID.TID 0000.0001) %MON RA_mean                      =   2.8975875795896E+10
(PID.TID 0000.0001) %MON RA_sd                        =   3.1950408538653E+09
(PID.TID 0000.0001) %MON RAW_max                      =   3.3728048822756E+10
(PID.TID 0000.0001) %MON RAW_min                      =   2.3976131760657E+10
(PID.TID 0000.0001) %MON RAW_mean                     =   2.8975875795896E+10
(PID.TID 0000.0001) %MON RAW_sd                       =   3.1950408538653E+09
(PID.TID 0000.0001) %MON RAS_max                      =   3.4354146294179E+10
(PID.TID 0000.0001) %MON RAS_min                      =   2.4727367980522E+10
(PID.TID 0000.0001) %MON RAS_mean                     =   2.9667497261876E+10
(PID.TID 0000.0001) %MON RAS_sd                       =   3.1541182474235E+09
(PID.TID 0000.0001) %MON RAZ_max                      =   3.4354146294179E+10
(PID.TID 0000.0001) %MON RAZ_min                      =   2.4727367980522E+10
(PID.TID 0000.0001) %MON RAZ_mean                     =   2.9667497261876E+10
(PID.TID 0000.0001) %MON RAZ_sd                       =   3.1541182474235E+09
(PID.TID 0000.0001) %MON AngleCS_max                  =   1.0000000000000E+00
(PID.TID 0000.0001) %MON AngleCS_min                  =   1.0000000000000E+00
(PID.TID 0000.0001) %MON AngleCS_mean                 =   1.0000000000000E+00
(PID.TID 0000.0001) %MON AngleCS_sd                   =   0.0000000000000E+00
(PID.TID 0000.0001) %MON AngleSN_max                  =   0.0000000000000E+00
(PID.TID 0000.0001) %MON AngleSN_min                  =   0.0000000000000E+00
(PID.TID 0000.0001) %MON AngleSN_mean                 =   0.0000000000000E+00
(PID.TID 0000.0001) %MON AngleSN_sd                   =   0.0000000000000E+00
(PID.TID 0000.0001)  MDS_READ_FIELD: opening global file: bathy.seaice_obcs
(PID.TID 0000.0001) OBCS_CHECK_DEPTHS: fixed topography at (i,j,bi,bj)=     3     8   1   1
(PID.TID 0000.0001) OBCS_CHECK_DEPTHS: fixed topography at (i,j,bi,bj)=     4     8   1   1
(PID.TID 0000.0001) OBCS_CHECK_DEPTHS: fixed topography at (i,j,bi,bj)=     5     1   2   1
(PID.TID 0000.0001) OBCS_CHECK_DEPTHS: Topography gradients normal to open boundaries:
(PID.TID 0000.0001) OBCS_CHECK_DEPTHS: ==> corrected       3 problematic grid-points
(PID.TID 0000.0001) // =======================================================
(PID.TID 0000.0001) // Field Model R_low (ini_masks_etc)
(PID.TID 0000.0001) // CMIN =         -3.200000000000000E+03
(PID.TID 0000.0001) // CMAX =         -5.500000000000000E+01
(PID.TID 0000.0001) // CINT =          1.164814814814815E+02
(PID.TID 0000.0001) // SYMBOLS (CMIN->CMAX): -abcdefghijklmnopqrstuvwxyz+
(PID.TID 0000.0001) //                  0.0: .
(PID.TID 0000.0001) // RANGE I (Lo:Hi:Step):(    -3:    14:     1)
(PID.TID 0000.0001) // RANGE J (Lo:Hi:Step):(    12:    -3:    -1)
(PID.TID 0000.0001) // RANGE K (Lo:Hi:Step):(   1:   1:   1)
(PID.TID 0000.0001) // =======================================================
(PID.TID 0000.0001) K =   1
(PID.TID 0000.0001) //                I=6       I=8
(PID.TID 0000.0001) // |--J--|321012345|789234567|901234
(PID.TID 0000.0001) //     12 ---d.+zid----+zid----d.+zi
(PID.TID 0000.0001) //     11 ----..zwid---.zwid----..zw
(PID.TID 0000.0001) //     10 d---...zypd--..zypd---...z
(PID.TID 0000.0001) //      9 yi--.....zyi-....zyi--....
(PID.TID 0000.0001) //      8 .....+yxx+...+yxx+.....+yx
(PID.TID 0000.0001) //      7 +...zzyxux+..zyxux+...zzyx
(PID.TID 0000.0001) //      6 i+..+zwpiii+.zwpiii+..+zwp
(PID.TID 0000.0001) //      5 ddszywsiddddswsiddddszywsi
(PID.TID 0000.0001) //      4 ---d.+zid----+zid----d.+zi
(PID.TID 0000.0001) //      3 ----..zwid---.zwid----..zw
(PID.TID 0000.0001) //      2 d---...zypd--..zypd---...z
(PID.TID 0000.0001) //      1 yi--.....zyi-....zyi--....
(PID.TID 0000.0001) //      0 .....+yxx+...+yxx+.....+yx
(PID.TID 0000.0001) //     -1 +...zzyxux+..zyxux+...zzyx
(PID.TID 0000.0001) //     -2 i+..+zwpiii+.zwpiii+..+zwp
(PID.TID 0000.0001) //     -3 ddszywsiddddswsiddddszywsi
(PID.TID 0000.0001) // =======================================================
(PID.TID 0000.0001) // END OF FIELD                                          =
(PID.TID 0000.0001) // =======================================================
(PID.TID 0000.0001) 
(PID.TID 0000.0001) // =======================================================
(PID.TID 0000.0001) // Field Model Ro_surf (ini_masks_etc)
(PID.TID 0000.0001) // CMIN =          1.000000000000000E+32
(PID.TID 0000.0001) // CMAX =         -1.000000000000000E+32
(PID.TID 0000.0001) // CINT =          0.000000000000000E+00
(PID.TID 0000.0001) // SYMBOLS (CMIN->CMAX): -abcdefghijklmnopqrstuvwxyz+
(PID.TID 0000.0001) //                  0.0: .
(PID.TID 0000.0001) // RANGE I (Lo:Hi:Step):(    -3:    14:     1)
(PID.TID 0000.0001) // RANGE J (Lo:Hi:Step):(    12:    -3:    -1)
(PID.TID 0000.0001) // RANGE K (Lo:Hi:Step):(   1:   1:   1)
(PID.TID 0000.0001) // =======================================================
(PID.TID 0000.0001) // =======================================================
(PID.TID 0000.0001) // END OF FIELD                                          =
(PID.TID 0000.0001) // =======================================================
(PID.TID 0000.0001) 
(PID.TID 0000.0001) // =======================================================
(PID.TID 0000.0001) // Field hFacC at iteration          0
(PID.TID 0000.0001) // CMIN =          1.000000000000000E+00
(PID.TID 0000.0001) // CMAX =          1.000000000000000E+00
(PID.TID 0000.0001) // CINT =          0.000000000000000E+00
(PID.TID 0000.0001) // SYMBOLS (CMIN->CMAX): -abcdefghijklmnopqrstuvwxyz+
(PID.TID 0000.0001) //                  0.0: .
(PID.TID 0000.0001) // RANGE I (Lo:Hi:Step):(    -3:    14:     1)
(PID.TID 0000.0001) // RANGE J (Lo:Hi:Step):(    12:    -3:    -1)
(PID.TID 0000.0001) // RANGE K (Lo:Hi:Step):(   1:   1:   1)
(PID.TID 0000.0001) // =======================================================
(PID.TID 0000.0001) // =======================================================
(PID.TID 0000.0001) // END OF FIELD                                          =
(PID.TID 0000.0001) // =======================================================
(PID.TID 0000.0001) 
(PID.TID 0000.0001) // =======================================================
(PID.TID 0000.0001) // Field hFacW at iteration          0
(PID.TID 0000.0001) // CMIN =          1.000000000000000E+00
(PID.TID 0000.0001) // CMAX =          1.000000000000000E+00
(PID.TID 0000.0001) // CINT =          0.000000000000000E+00
(PID.TID 0000.0001) // SYMBOLS (CMIN->CMAX): -abcdefghijklmnopqrstuvwxyz+
(PID.TID 0000.0001) //                  0.0: .
(PID.TID 0000.0001) // RANGE I (Lo:Hi:Step):(    -3:    14:     1)
(PID.TID 0000.0001) // RANGE J (Lo:Hi:Step):(    12:    -3:    -1)
(PID.TID 0000.0001) // RANGE K (Lo:Hi:Step):(   1:   1:   1)
(PID.TID 0000.0001) // =======================================================
(PID.TID 0000.0001) // =======================================================
(PID.TID 0000.0001) // END OF FIELD                                          =
(PID.TID 0000.0001) // =======================================================
(PID.TID 0000.0001) 
(PID.TID 0000.0001) // =======================================================
(PID.TID 0000.0001) // Field hFacS at iteration          0
(PID.TID 0000.0001) // CMIN =          1.000000000000000E+00
(PID.TID 0000.0001) // CMAX =          1.000000000000000E+00
(PID.TID 0000.0001) // CINT =          0.000000000000000E+00
(PID.TID 0000.0001) // SYMBOLS (CMIN->CMAX): -abcdefghijklmnopqrstuvwxyz+
(PID.TID 0000.0001) //                  0.0: .
(PID.TID 0000.0001) // RANGE I (Lo:Hi:Step):(    -3:    14:     1)
(PID.TID 0000.0001) // RANGE J (Lo:Hi:Step):(    12:    -3:    -1)
(PID.TID 0000.0001) // RANGE K (Lo:Hi:Step):(   1:   1:   1)
(PID.TID 0000.0001) // =======================================================
(PID.TID 0000.0001) // =======================================================
(PID.TID 0000.0001) // END OF FIELD                                          =
(PID.TID 0000.0001) // =======================================================
(PID.TID 0000.0001) 
(PID.TID 0000.0001) 
(PID.TID 0000.0001) // =======================================================
(PID.TID 0000.0001) // Calendar configuration >>> START <<<
(PID.TID 0000.0001) // =======================================================
(PID.TID 0000.0001) 
(PID.TID 0000.0001) modelstart = /* Start time of the model integration [s] */
(PID.TID 0000.0001)                 3.600000000000000E+03
(PID.TID 0000.0001)     ;
(PID.TID 0000.0001) modelend  = /* End time of the model integration [s] */
(PID.TID 0000.0001)                 2.160000000000000E+04
(PID.TID 0000.0001)     ;
(PID.TID 0000.0001) modelStep = /* Time interval for a model forward step [s] */
(PID.TID 0000.0001)                 3.600000000000000E+03
(PID.TID 0000.0001)     ;
(PID.TID 0000.0001) usingGregorianCalendar= /* Calendar Type: Gregorian Calendar */
(PID.TID 0000.0001)                   T
(PID.TID 0000.0001)     ;
(PID.TID 0000.0001) usingJulianCalendar = /* Calendar Type: Julian Calendar */
(PID.TID 0000.0001)                   F
(PID.TID 0000.0001)     ;
(PID.TID 0000.0001) usingNoLeapYearCal  = /* Calendar Type: without Leap Year */
(PID.TID 0000.0001)                   F
(PID.TID 0000.0001)     ;
(PID.TID 0000.0001) usingModelCalendar  = /* Calendar Type: Model Calendar */
(PID.TID 0000.0001)                   F
(PID.TID 0000.0001)     ;
(PID.TID 0000.0001) modelStartDate YYYYMMDD = /* Model start date YYYY-MM-DD */
(PID.TID 0000.0001)                19790101
(PID.TID 0000.0001)     ;
(PID.TID 0000.0001)   modelStartDate HHMMSS = /* Model start date HH-MM-SS  */
(PID.TID 0000.0001)                   10000
(PID.TID 0000.0001)     ;
(PID.TID 0000.0001) modelEndDate   YYYYMMDD = /* Model end date YYYY-MM-DD */
(PID.TID 0000.0001)                19790101
(PID.TID 0000.0001)     ;
(PID.TID 0000.0001)   modelEndDate   HHMMSS = /* Model end date HH-MM-SS  */
(PID.TID 0000.0001)                   60000
(PID.TID 0000.0001)     ;
(PID.TID 0000.0001) intyears = /* Number of calendar years affected by the integration */
(PID.TID 0000.0001)                       1
(PID.TID 0000.0001)     ;
(PID.TID 0000.0001) intmonths= /* Number of calendar months affected by the integration */
(PID.TID 0000.0001)                       1
(PID.TID 0000.0001)     ;
(PID.TID 0000.0001) intdays = /* Number of calendar days affected by the integration */
(PID.TID 0000.0001)                       1
(PID.TID 0000.0001)     ;
(PID.TID 0000.0001) modelIter0 = /* Base timestep number  */
(PID.TID 0000.0001)                       1
(PID.TID 0000.0001)     ;
(PID.TID 0000.0001) modelIterEnd = /* Final timestep number  */
(PID.TID 0000.0001)                       6
(PID.TID 0000.0001)     ;
(PID.TID 0000.0001) modelIntSteps= /* Number of model timesteps  */
(PID.TID 0000.0001)                       5
(PID.TID 0000.0001)     ;
(PID.TID 0000.0001) 
(PID.TID 0000.0001) // =======================================================
(PID.TID 0000.0001) // Calendar configuration  >>> END <<<
(PID.TID 0000.0001) // =======================================================
(PID.TID 0000.0001) 
(PID.TID 0000.0001) GAD_INIT_FIXED: GAD_OlMinSize=  4  0  1
(PID.TID 0000.0001) 
(PID.TID 0000.0001) // ===================================
(PID.TID 0000.0001) // GAD parameters :
(PID.TID 0000.0001) // ===================================
(PID.TID 0000.0001) tempAdvScheme =   /* Temp. Horiz.Advection scheme selector */
(PID.TID 0000.0001)                       7
(PID.TID 0000.0001)     ;
(PID.TID 0000.0001) tempVertAdvScheme =   /* Temp. Vert. Advection scheme selector */
(PID.TID 0000.0001)                       7
(PID.TID 0000.0001)     ;
(PID.TID 0000.0001) tempMultiDimAdvec =   /* use Muti-Dim Advec method for Temp */
(PID.TID 0000.0001)                   T
(PID.TID 0000.0001)     ;
(PID.TID 0000.0001) tempSOM_Advection = /* use 2nd Order Moment Advection for Temp */
(PID.TID 0000.0001)                   F
(PID.TID 0000.0001)     ;
(PID.TID 0000.0001) AdamsBashforthGt = /* apply Adams-Bashforth extrapolation on Gt */
(PID.TID 0000.0001)                   F
(PID.TID 0000.0001)     ;
(PID.TID 0000.0001) AdamsBashforth_T = /* apply Adams-Bashforth extrapolation on Temp */
(PID.TID 0000.0001)                   F
(PID.TID 0000.0001)     ;
(PID.TID 0000.0001) saltAdvScheme =   /* Salt. Horiz.advection scheme selector */
(PID.TID 0000.0001)                       7
(PID.TID 0000.0001)     ;
(PID.TID 0000.0001) saltVertAdvScheme =   /* Salt. Vert. Advection scheme selector */
(PID.TID 0000.0001)                       7
(PID.TID 0000.0001)     ;
(PID.TID 0000.0001) saltMultiDimAdvec =   /* use Muti-Dim Advec method for Salt */
(PID.TID 0000.0001)                   T
(PID.TID 0000.0001)     ;
(PID.TID 0000.0001) saltSOM_Advection = /* use 2nd Order Moment Advection for Salt */
(PID.TID 0000.0001)                   F
(PID.TID 0000.0001)     ;
(PID.TID 0000.0001) AdamsBashforthGs = /* apply Adams-Bashforth extrapolation on Gs */
(PID.TID 0000.0001)                   F
(PID.TID 0000.0001)     ;
(PID.TID 0000.0001) AdamsBashforth_S = /* apply Adams-Bashforth extrapolation on Salt */
(PID.TID 0000.0001)                   F
(PID.TID 0000.0001)     ;
(PID.TID 0000.0001) // ===================================
(PID.TID 0000.0001) 
(PID.TID 0000.0001) // =======================================================
(PID.TID 0000.0001) // External forcing (EXF) configuration >>> START <<<
(PID.TID 0000.0001) // =======================================================
(PID.TID 0000.0001) 
(PID.TID 0000.0001)  EXF general parameters:
(PID.TID 0000.0001) 
(PID.TID 0000.0001) exf_iprec = /* exf file precision */
(PID.TID 0000.0001)                      32
(PID.TID 0000.0001)     ;
(PID.TID 0000.0001) useExfYearlyFields = /* add extension _YEAR to input file names */
(PID.TID 0000.0001)                   F
(PID.TID 0000.0001)     ;
(PID.TID 0000.0001) twoDigitYear = /* use 2-digit year extension */
(PID.TID 0000.0001)                   F
(PID.TID 0000.0001)     ;
(PID.TID 0000.0001) useExfCheckRange = /* check for fields range */
(PID.TID 0000.0001)                   T
(PID.TID 0000.0001)     ;
(PID.TID 0000.0001) diags_opOceWeighted = /* weight flux diags by open-ocean fraction */
(PID.TID 0000.0001)                   T
(PID.TID 0000.0001)     ;
(PID.TID 0000.0001) exf_debugLev = /* select EXF-debug printing level */
(PID.TID 0000.0001)                       2
(PID.TID 0000.0001)     ;
(PID.TID 0000.0001) exf_monFreq  = /* EXF monitor frequency [ s ] */
(PID.TID 0000.0001)                 1.000000000000000E+00
(PID.TID 0000.0001)     ;
(PID.TID 0000.0001) exf_adjMonSelect = /* select group of exf AD-variables to monitor */
(PID.TID 0000.0001)                       1
(PID.TID 0000.0001)     ;
(PID.TID 0000.0001) repeatPeriod = /* period for cycling forcing dataset [ s ] */
(PID.TID 0000.0001)                 3.162240000000000E+07
(PID.TID 0000.0001)     ;
(PID.TID 0000.0001) climTempFreeze= /* Minimum climatological temperature [deg.C] */
(PID.TID 0000.0001)                -1.900000000000000E+00
(PID.TID 0000.0001)     ;
(PID.TID 0000.0001) windStressMax = /* Maximum absolute windstress [ Pa ] */
(PID.TID 0000.0001)                 2.000000000000000E+00
(PID.TID 0000.0001)     ;
(PID.TID 0000.0001) stressIsOnCgrid = /* set u,v_stress on Arakawa C-grid */
(PID.TID 0000.0001)                   F
(PID.TID 0000.0001)     ;
(PID.TID 0000.0001) rotateStressOnAgrid = /* rotate u,v_stress on Arakawa A-grid */
(PID.TID 0000.0001)                   F
(PID.TID 0000.0001)     ;
(PID.TID 0000.0001) cen2kel = /* conversion of deg. Centigrade to Kelvin [K] */
(PID.TID 0000.0001)                 2.731500000000000E+02
(PID.TID 0000.0001)     ;
(PID.TID 0000.0001) gravity_mks= /* gravitational acceleration [m/s^2] */
(PID.TID 0000.0001)                 9.810000000000000E+00
(PID.TID 0000.0001)     ;
(PID.TID 0000.0001) atmrho =  /* mean atmospheric density [kg/m^3] */
(PID.TID 0000.0001)                 1.200000000000000E+00
(PID.TID 0000.0001)     ;
(PID.TID 0000.0001) atmcp =  /* mean atmospheric specific heat [J/kg/K] */
(PID.TID 0000.0001)                 1.005000000000000E+03
(PID.TID 0000.0001)     ;
(PID.TID 0000.0001) flamb =  /* latent heat of evaporation [J/kg] */
(PID.TID 0000.0001)                 2.500000000000000E+06
(PID.TID 0000.0001)     ;
(PID.TID 0000.0001) flami =  /* latent heat of pure-ice melting [J/kg] */
(PID.TID 0000.0001)                 3.340000000000000E+05
(PID.TID 0000.0001)     ;
(PID.TID 0000.0001) cvapor_fac = /* const. for Saturation calculation [?] */
(PID.TID 0000.0001)                 6.403800000000000E+05
(PID.TID 0000.0001)     ;
(PID.TID 0000.0001) cvapor_exp = /* const. for Saturation calculation [?] */
(PID.TID 0000.0001)                 5.107400000000000E+03
(PID.TID 0000.0001)     ;
(PID.TID 0000.0001) cvapor_fac_ice= /* const. for Saturation calculation [?] */
(PID.TID 0000.0001)                 1.163780000000000E+07
(PID.TID 0000.0001)     ;
(PID.TID 0000.0001) cvapor_exp_ice= /* const. for Saturation calculation [?] */
(PID.TID 0000.0001)                 5.897800000000000E+03
(PID.TID 0000.0001)     ;
(PID.TID 0000.0001) humid_fac = /* humidity coef. in virtual temp. [(kg/kg)^-1] */
(PID.TID 0000.0001)                 6.060000000000000E-01
(PID.TID 0000.0001)     ;
(PID.TID 0000.0001) gamma_blk = /* adiabatic lapse rate [?] */
(PID.TID 0000.0001)                 1.000000000000000E-02
(PID.TID 0000.0001)     ;
(PID.TID 0000.0001) saltsat = /* reduction of Qsat over salty water [-] */
(PID.TID 0000.0001)                 9.800000000000000E-01
(PID.TID 0000.0001)     ;
(PID.TID 0000.0001) noNegativeEvap = /* prevent negative Evaporation */
(PID.TID 0000.0001)                   F
(PID.TID 0000.0001)     ;
(PID.TID 0000.0001) sstExtrapol = /* extrapolation coeff from lev. 1 & 2 to surf [-] */
(PID.TID 0000.0001)                 0.000000000000000E+00
(PID.TID 0000.0001)     ;
(PID.TID 0000.0001) cDrag_1 = /* coef used in drag calculation [m/s] */
(PID.TID 0000.0001)                 2.700000000000000E-03
(PID.TID 0000.0001)     ;
(PID.TID 0000.0001) cDrag_2 = /* coef used in drag calculation [-] */
(PID.TID 0000.0001)                 1.420000000000000E-04
(PID.TID 0000.0001)     ;
(PID.TID 0000.0001) cDrag_3 = /* coef used in drag calculation [s/m] */
(PID.TID 0000.0001)                 7.640000000000000E-05
(PID.TID 0000.0001)     ;
(PID.TID 0000.0001) cDrag_8 = /* coef used in drag calculation [(s/m)^6] */
(PID.TID 0000.0001)                 1.234567000000000E+05
(PID.TID 0000.0001)     ;
(PID.TID 0000.0001) cDragMax = /* maximum drag (Large and Yeager, 2009) [-] */
(PID.TID 0000.0001)                 1.234567000000000E+05
(PID.TID 0000.0001)     ;
(PID.TID 0000.0001) umax = /* at maximum wind (Large and Yeager, 2009) [m/s] */
(PID.TID 0000.0001)                 1.234567000000000E+05
(PID.TID 0000.0001)     ;
(PID.TID 0000.0001) cStanton_1 = /* coef used in Stanton number calculation [-] */
(PID.TID 0000.0001)                 3.270000000000000E-02
(PID.TID 0000.0001)     ;
(PID.TID 0000.0001) cStanton_2 = /* coef used in Stanton number calculation [-] */
(PID.TID 0000.0001)                 1.800000000000000E-02
(PID.TID 0000.0001)     ;
(PID.TID 0000.0001) cDalton = /* Dalton number [-] */
(PID.TID 0000.0001)                 3.460000000000000E-02
(PID.TID 0000.0001)     ;
(PID.TID 0000.0001) exf_scal_BulkCdn= /* Drag coefficient scaling factor [-] */
(PID.TID 0000.0001)                 1.000000000000000E+00
(PID.TID 0000.0001)     ;
(PID.TID 0000.0001) zolmin = /* minimum stability parameter [?] */
(PID.TID 0000.0001)                -1.000000000000000E+02
(PID.TID 0000.0001)     ;
(PID.TID 0000.0001) psim_fac = /* coef used in turbulent fluxes calculation [-] */
(PID.TID 0000.0001)                 5.000000000000000E+00
(PID.TID 0000.0001)     ;
(PID.TID 0000.0001) zref =  /* reference height [ m ] */
(PID.TID 0000.0001)                 1.000000000000000E+01
(PID.TID 0000.0001)     ;
(PID.TID 0000.0001) hu =  /* height of mean wind [ m ] */
(PID.TID 0000.0001)                 1.000000000000000E+01
(PID.TID 0000.0001)     ;
(PID.TID 0000.0001) ht =  /* height of mean temperature [ m ] */
(PID.TID 0000.0001)                 2.000000000000000E+00
(PID.TID 0000.0001)     ;
(PID.TID 0000.0001) hq =  /* height of mean spec.humidity [ m ] */
(PID.TID 0000.0001)                 2.000000000000000E+00
(PID.TID 0000.0001)     ;
(PID.TID 0000.0001) uMin = /* minimum wind speed [m/s] */
(PID.TID 0000.0001)                 5.000000000000000E-01
(PID.TID 0000.0001)     ;
(PID.TID 0000.0001) useStabilityFct_overIce= /* transfert Coeffs over sea-ice depend on stability */
(PID.TID 0000.0001)                   F
(PID.TID 0000.0001)     ;
(PID.TID 0000.0001) exf_iceCd = /* drag coefficient over sea-ice (fixed) [-] */
(PID.TID 0000.0001)                 1.630000000000000E-03
(PID.TID 0000.0001)     ;
(PID.TID 0000.0001) exf_iceCe = /* transfert coeff. over sea-ice, for Evap (fixed) [-] */
(PID.TID 0000.0001)                 1.630000000000000E-03
(PID.TID 0000.0001)     ;
(PID.TID 0000.0001) exf_iceCh = /* transfert coeff. over sea-ice, Sens.Heat.(fixed)[-] */
(PID.TID 0000.0001)                 1.630000000000000E-03
(PID.TID 0000.0001)     ;
(PID.TID 0000.0001) exf_albedo =  /* Sea-water albedo [-] */
(PID.TID 0000.0001)                 1.000000000000000E-01
(PID.TID 0000.0001)     ;
(PID.TID 0000.0001) useExfZenAlbedo = /* Sea-water albedo varies with zenith angle */
(PID.TID 0000.0001)                   F
(PID.TID 0000.0001)     ;
(PID.TID 0000.0001) select_ZenAlbedo = /* Sea-water albedo computation method */
(PID.TID 0000.0001)                       0
(PID.TID 0000.0001)     ;
(PID.TID 0000.0001) useExfZenIncoming = /* compute incoming solar radiation */
(PID.TID 0000.0001)                   F
(PID.TID 0000.0001)     ;
(PID.TID 0000.0001) ocean_emissivity = /* longwave ocean-surface emissivity [-] */
(PID.TID 0000.0001)                 9.700176366843034E-01
(PID.TID 0000.0001)     ;
(PID.TID 0000.0001) ice_emissivity = /* longwave seaice emissivity [-] */
(PID.TID 0000.0001)                 9.500000000000000E-01
(PID.TID 0000.0001)     ;
(PID.TID 0000.0001) snow_emissivity = /* longwave snow  emissivity [-] */
(PID.TID 0000.0001)                 9.500000000000000E-01
(PID.TID 0000.0001)     ;
(PID.TID 0000.0001) 
(PID.TID 0000.0001)  EXF main CPP flags:
(PID.TID 0000.0001) 
(PID.TID 0000.0001) // USE_EXF_INTERPOLATION:          NOT defined
(PID.TID 0000.0001) // ALLOW_ATM_TEMP:                     defined
(PID.TID 0000.0001) // ALLOW_ATM_WIND (useAtmWind):        defined
(PID.TID 0000.0001) // ALLOW_DOWNWARD_RADIATION:           defined
(PID.TID 0000.0001) // ALLOW_BULKFORMULAE:                 defined
(PID.TID 0000.0001) 
(PID.TID 0000.0001)    Zonal wind forcing starts at                   -1317600.
(PID.TID 0000.0001)    Zonal wind forcing period is                    2635200.
(PID.TID 0000.0001)    Zonal wind forcing repeat-cycle is             31622400.
(PID.TID 0000.0001)    Zonal wind forcing is read from file:
(PID.TID 0000.0001)    >> u10m.labsea1979 <<
(PID.TID 0000.0001) 
(PID.TID 0000.0001)    Meridional wind forcing starts at              -1317600.
(PID.TID 0000.0001)    Meridional wind forcing period is               2635200.
(PID.TID 0000.0001)    Meridional wind forcing repeat-cycle is        31622400.
(PID.TID 0000.0001)    Meridional wind forcing is read from file:
(PID.TID 0000.0001)    >> v10m.labsea1979 <<
(PID.TID 0000.0001) 
(PID.TID 0000.0001)    Atmospheric temperature starts at              -1317600.
(PID.TID 0000.0001)    Atmospheric temperature period is               2635200.
(PID.TID 0000.0001)    Atmospheric temperature repeat-cycle is        31622400.
(PID.TID 0000.0001)    Atmospheric temperature is read from file:
(PID.TID 0000.0001)    >> tair.labsea1979 <<
(PID.TID 0000.0001) 
(PID.TID 0000.0001)    Atmospheric specific humidity starts at        -1317600.
(PID.TID 0000.0001)    Atmospheric specific humidity period is         2635200.
(PID.TID 0000.0001)    Atmospheric specific humidity rep-cycle is     31622400.
(PID.TID 0000.0001)    Atmospheric specific humidity is read from file:
(PID.TID 0000.0001)    >> qa.labsea1979 <<
(PID.TID 0000.0001) 
(PID.TID 0000.0001) // ALLOW_READ_TURBFLUXES:          NOT defined
(PID.TID 0000.0001) // EXF_READ_EVAP:                  NOT defined
(PID.TID 0000.0001) 
(PID.TID 0000.0001)    Precipitation data starts at                   -1317600.
(PID.TID 0000.0001)    Precipitation data period is                    2635200.
(PID.TID 0000.0001)    Precipitation data repeat-cycle is             31622400.
(PID.TID 0000.0001)    Precipitation data is read from file:
(PID.TID 0000.0001)    >> prate.labsea1979 <<
(PID.TID 0000.0001) 
(PID.TID 0000.0001) // ALLOW_RUNOFF:                       defined
(PID.TID 0000.0001) // ALLOW_RUNOFTEMP:                NOT defined
(PID.TID 0000.0001) // ALLOW_SALTFLX:                      defined
(PID.TID 0000.0001) 
(PID.TID 0000.0001)    Downward shortwave flux starts at              -1317600.
(PID.TID 0000.0001)    Downward shortwave flux period is               2635200.
(PID.TID 0000.0001)    Downward shortwave flux repeat-cycle is        31622400.
(PID.TID 0000.0001)    Downward shortwave flux is read from file:
(PID.TID 0000.0001)    >> fsh.labsea1979 <<
(PID.TID 0000.0001) 
(PID.TID 0000.0001)    Downward longwave flux starts at               -1317600.
(PID.TID 0000.0001)    Downward longwave flux period is                2635200.
(PID.TID 0000.0001)    Downward longwave flux repeat-cycle is         31622400.
(PID.TID 0000.0001)    Downward longwave flux is read from file:
(PID.TID 0000.0001)    >> flo.labsea1979 <<
(PID.TID 0000.0001) 
(PID.TID 0000.0001) // =======================================================
(PID.TID 0000.0001) // External forcing (EXF) climatology configuration :
(PID.TID 0000.0001) // =======================================================
(PID.TID 0000.0001) 
(PID.TID 0000.0001) // ALLOW_CLIMSST_RELAXATION:           defined
(PID.TID 0000.0001)    climsst relaxation is NOT used
(PID.TID 0000.0001) 
(PID.TID 0000.0001) // ALLOW_CLIMSSS_RELAXATION:           defined
(PID.TID 0000.0001)    Climatological SSS starts at                   -1317600.
(PID.TID 0000.0001)    Climatological SSS period is                    2635200.
(PID.TID 0000.0001)    Climatological SSS repeat-cycle is             31622400.
(PID.TID 0000.0001)    Climatological SSS is read from file:
(PID.TID 0000.0001)    >> SSS_monthly.labsea1979 <<
(PID.TID 0000.0001) 
(PID.TID 0000.0001) // =======================================================
(PID.TID 0000.0001) // External forcing (EXF) configuration  >>> END <<<
(PID.TID 0000.0001) // =======================================================
(PID.TID 0000.0001) 
(PID.TID 0000.0001) // =======================================================
(PID.TID 0000.0001) // Seaice configuration (SEAICE_PARM01) >>> START <<<
(PID.TID 0000.0001) // =======================================================
(PID.TID 0000.0001) 
(PID.TID 0000.0001)    Seaice time stepping configuration   > START <
(PID.TID 0000.0001)    ----------------------------------------------
(PID.TID 0000.0001) SEAICE_deltaTtherm= /* thermodynamic timestep */
(PID.TID 0000.0001)                 3.600000000000000E+03
(PID.TID 0000.0001)     ;
(PID.TID 0000.0001) SEAICE_deltaTdyn  = /* dynamic timestep */
(PID.TID 0000.0001)                 3.600000000000000E+03
(PID.TID 0000.0001)     ;
(PID.TID 0000.0001) SEAICE_deltaTevp  = /* EVP timestep */
(PID.TID 0000.0001)                 1.234567000000000E+05
(PID.TID 0000.0001)     ;
(PID.TID 0000.0001) SEAICEuseBDF2  = /* use backw. differencing for mom. eq. */
(PID.TID 0000.0001)                   F
(PID.TID 0000.0001)     ;
(PID.TID 0000.0001) SEAICEupdateOceanStress= /* update Ocean surf. stress */
(PID.TID 0000.0001)                   T
(PID.TID 0000.0001)     ;
(PID.TID 0000.0001) SEAICErestoreUnderIce  = /* restore T and S under ice */
(PID.TID 0000.0001)                   F
(PID.TID 0000.0001)     ;
(PID.TID 0000.0001) 
(PID.TID 0000.0001)    Seaice dynamics configuration   > START <
(PID.TID 0000.0001)    ------------------------------------------
(PID.TID 0000.0001) SEAICEuseDYNAMICS = /* use dynamics */
(PID.TID 0000.0001)                   T
(PID.TID 0000.0001)     ;
(PID.TID 0000.0001) model grid type   = /* type of sea ice model grid */
(PID.TID 0000.0001)               'C-GRID'
(PID.TID 0000.0001)     ;
(PID.TID 0000.0001) SEAICEuseStrImpCpl = /* use strongly implicit coupling */
(PID.TID 0000.0001)                   F
(PID.TID 0000.0001)     ;
(PID.TID 0000.0001) SEAICEusePicardAsPrecon = /* Picard as preconditioner */
(PID.TID 0000.0001)                   F
(PID.TID 0000.0001)     ;
(PID.TID 0000.0001) SEAICEuseLSR      = /* use default Picard-LSR solver */
(PID.TID 0000.0001)                   T
(PID.TID 0000.0001)     ;
(PID.TID 0000.0001) SEAICEuseLSRflex  = /* with residual norm criterion */
(PID.TID 0000.0001)                   F
(PID.TID 0000.0001)     ;
(PID.TID 0000.0001) SEAICEuseKrylov   = /* use Picard-Krylov solver */
(PID.TID 0000.0001)                   F
(PID.TID 0000.0001)     ;
(PID.TID 0000.0001) SEAICEuseEVP      = /* use EVP solver rather than LSR */
(PID.TID 0000.0001)                   F
(PID.TID 0000.0001)     ;
(PID.TID 0000.0001) SEAICEuseJFNK     = /* use JFNK solver */
(PID.TID 0000.0001)                   F
(PID.TID 0000.0001)     ;
(PID.TID 0000.0001) SEAICEuseFREEDRIFT = /* use free drift solution */
(PID.TID 0000.0001)                   F
(PID.TID 0000.0001)     ;
(PID.TID 0000.0001) OCEAN_drag        = /* air-ocean drag coefficient */
(PID.TID 0000.0001)                 1.000000000000000E-03
(PID.TID 0000.0001)     ;
(PID.TID 0000.0001) SEAICE_drag       = /* air-ice drag coefficient */
(PID.TID 0000.0001)                 2.000000000000000E-03
(PID.TID 0000.0001)     ;
(PID.TID 0000.0001) SEAICE_drag_south      = /* Southern Ocean SEAICE_drag */
(PID.TID 0000.0001)                 2.000000000000000E-03
(PID.TID 0000.0001)     ;
(PID.TID 0000.0001) SEAICE_waterDrag  = /* water-ice drag (no units) */
(PID.TID 0000.0001)                 5.210126582278480E-03
(PID.TID 0000.0001)     ;
(PID.TID 0000.0001) SEAICE_waterDrag_south = /* Southern Ocean waterDrag (no units) */
(PID.TID 0000.0001)                 5.210126582278480E-03
(PID.TID 0000.0001)     ;
(PID.TID 0000.0001) SEAICEdWatMin = /* minimum linear water-ice drag (in m/s) */
(PID.TID 0000.0001)                 2.500000000000000E-01
(PID.TID 0000.0001)     ;
(PID.TID 0000.0001) SEAICEsideDrag = /* lateral drag parameter */
(PID.TID 0000.0001)                 0.000000000000000E+00
(PID.TID 0000.0001)     ;
(PID.TID 0000.0001) uCoastLineFile = /* u-coastline length file */
(PID.TID 0000.0001)               ''
(PID.TID 0000.0001)     ;
(PID.TID 0000.0001) vCoastLineFile = /* v-coastline length file */
(PID.TID 0000.0001)               ''
(PID.TID 0000.0001)     ;
(PID.TID 0000.0001) SEAICEuseTilt     = /* include surface tilt in dyna. */
(PID.TID 0000.0001)                   T
(PID.TID 0000.0001)     ;
(PID.TID 0000.0001) SEAICEuseTEM      = /* use truncated ellipse rheology */
(PID.TID 0000.0001)                   F
(PID.TID 0000.0001)     ;
(PID.TID 0000.0001) SEAICE_strength   = /* sea-ice strength Pstar */
(PID.TID 0000.0001)                 2.678000000000000E+04
(PID.TID 0000.0001)     ;
(PID.TID 0000.0001) SEAICE_cStar      = /* sea-ice strength parameter cStar */
(PID.TID 0000.0001)                 2.000000000000000E+01
(PID.TID 0000.0001)     ;
(PID.TID 0000.0001) SEAICEpressReplFac= /* press. replacement method factor */
(PID.TID 0000.0001)                 1.000000000000000E+00
(PID.TID 0000.0001)     ;
(PID.TID 0000.0001) SEAICE_tensilFac  = /* sea-ice tensile strength factor */
(PID.TID 0000.0001)                 0.000000000000000E+00
(PID.TID 0000.0001)     ;
(PID.TID 0000.0001) SEAICE_tensilDepth= /* crit. depth for tensile strength */
(PID.TID 0000.0001)                 0.000000000000000E+00
(PID.TID 0000.0001)     ;
(PID.TID 0000.0001) SEAICEpresH0   = /* sea-ice strength Heff threshold */
(PID.TID 0000.0001)                 1.000000000000000E+00
(PID.TID 0000.0001)     ;
(PID.TID 0000.0001) SEAICEpresPow0 = /* exponent for Heff<SEAICEpresH0 */
(PID.TID 0000.0001)                       1
(PID.TID 0000.0001)     ;
(PID.TID 0000.0001) SEAICEpresPow1 = /* exponent for Heff>SEAICEpresH0 */
(PID.TID 0000.0001)                       1
(PID.TID 0000.0001)     ;
(PID.TID 0000.0001) SEAICEetaZmethod = /* method computing eta at Z-point */
(PID.TID 0000.0001)                       0
(PID.TID 0000.0001)     ;
(PID.TID 0000.0001) SEAICE_zetaMaxFac = /* factor for upper viscosity bound */
(PID.TID 0000.0001)                 2.500000000000000E+08
(PID.TID 0000.0001)     ;
(PID.TID 0000.0001) SEAICE_zetaMin    = /* lower bound for viscosity */
(PID.TID 0000.0001)                 0.000000000000000E+00
(PID.TID 0000.0001)     ;
(PID.TID 0000.0001) SEAICE_eccen    = /* elliptical yield curve eccent */
(PID.TID 0000.0001)                 2.000000000000000E+00
(PID.TID 0000.0001)     ;
(PID.TID 0000.0001) SEAICEstressFactor    = /* wind stress scaling factor */
(PID.TID 0000.0001)                 1.000000000000000E+00
(PID.TID 0000.0001)     ;
(PID.TID 0000.0001) SEAICE_airTurnAngle    = /* air-ice turning angle */
(PID.TID 0000.0001)                 0.000000000000000E+00
(PID.TID 0000.0001)     ;
(PID.TID 0000.0001) SEAICE_waterTurnAngle  = /* ice-water turning angle */
(PID.TID 0000.0001)                 0.000000000000000E+00
(PID.TID 0000.0001)     ;
(PID.TID 0000.0001) SEAICEselectMetricTerms = /* metric terms selector for div(sigma) */
(PID.TID 0000.0001)                       2
(PID.TID 0000.0001)     ;
(PID.TID 0000.0001) SEAICE_no_slip    = /* no slip boundary conditions */
(PID.TID 0000.0001)                   F
(PID.TID 0000.0001)     ;
(PID.TID 0000.0001) SEAICE_2ndOrderBC = /* 2nd order no slip boundary conditions */
(PID.TID 0000.0001)                   F
(PID.TID 0000.0001)     ;
(PID.TID 0000.0001) SEAICE_clipVeloctities = /* impose max. vels. */
(PID.TID 0000.0001)                   F
(PID.TID 0000.0001)     ;
(PID.TID 0000.0001) useHB87stressCoupling  = /* altern. ice-ocean stress */
(PID.TID 0000.0001)                   F
(PID.TID 0000.0001)     ;
(PID.TID 0000.0001) SEAICEscaleSurfStress  = /* scale atm. and ocean-surface stress with AREA */
(PID.TID 0000.0001)                   F
(PID.TID 0000.0001)     ;
(PID.TID 0000.0001) SEAICE_maskRHS    = /* mask RHS of solver */
(PID.TID 0000.0001)                   F
(PID.TID 0000.0001)     ;
(PID.TID 0000.0001) SEAICEaddSnowMass = /* add snow mass to seaiceMassC/U/V */
(PID.TID 0000.0001)                   F
(PID.TID 0000.0001)     ;
(PID.TID 0000.0001) LSR_mixIniGuess = /* mix free-drift sol. into LSR initial Guess */
(PID.TID 0000.0001)                       1
(PID.TID 0000.0001)     ;
(PID.TID 0000.0001) SEAICE_LSRrelaxU  = /* LSR solver: relaxation parameter */
(PID.TID 0000.0001)                 9.500000000000000E-01
(PID.TID 0000.0001)     ;
(PID.TID 0000.0001) SEAICE_LSRrelaxV  = /* LSR solver: relaxation parameter */
(PID.TID 0000.0001)                 9.500000000000000E-01
(PID.TID 0000.0001)     ;
(PID.TID 0000.0001) LSR_ERROR         = /* sets accuracy of LSR solver */
(PID.TID 0000.0001)                 1.000000000000000E-12
(PID.TID 0000.0001)     ;
(PID.TID 0000.0001) SOLV_NCHECK       = /* test interval for LSR solver */
(PID.TID 0000.0001)                       2
(PID.TID 0000.0001)     ;
(PID.TID 0000.0001) SEAICEuseMultiTileSolver = /* use full domain tri-diag solver */
(PID.TID 0000.0001)                   F
(PID.TID 0000.0001)     ;
(PID.TID 0000.0001) SEAICE_OLx = /* overlap for LSR/preconditioner */
(PID.TID 0000.0001)                       0
(PID.TID 0000.0001)     ;
(PID.TID 0000.0001) SEAICE_OLy = /* overlap for LSR/preconditioner */
(PID.TID 0000.0001)                       0
(PID.TID 0000.0001)     ;
(PID.TID 0000.0001) SEAICEnonLinIterMax = /* max. number of nonlinear solver steps */
(PID.TID 0000.0001)                       2
(PID.TID 0000.0001)     ;
(PID.TID 0000.0001) SEAICElinearIterMax = /* max. number of linear solver steps */
(PID.TID 0000.0001)                    1500
(PID.TID 0000.0001)     ;
(PID.TID 0000.0001) SEAICEnonLinTol     = /* non-linear solver tolerance */
(PID.TID 0000.0001)                 0.000000000000000E+00
(PID.TID 0000.0001)     ;
(PID.TID 0000.0001) 
(PID.TID 0000.0001)    Seaice advection diffusion config,   > START <
(PID.TID 0000.0001)    -----------------------------------------------
(PID.TID 0000.0001) SEAICEmomAdvection = /* advect sea ice momentum */
(PID.TID 0000.0001)                   F
(PID.TID 0000.0001)     ;
(PID.TID 0000.0001) SEAICEadvHeff = /* advect effective ice thickness */
(PID.TID 0000.0001)                   T
(PID.TID 0000.0001)     ;
(PID.TID 0000.0001) SEAICEadvArea = /* advect fractional ice area */
(PID.TID 0000.0001)                   T
(PID.TID 0000.0001)     ;
(PID.TID 0000.0001) SEAICEadvSnow = /* advect snow layer together with ice */
(PID.TID 0000.0001)                   T
(PID.TID 0000.0001)     ;
(PID.TID 0000.0001) SEAICEadvSalt = /* advect salinity together with ice */
(PID.TID 0000.0001)                   T
(PID.TID 0000.0001)     ;
(PID.TID 0000.0001) SEAICEmultiDimAdvection = /* multidimadvec */
(PID.TID 0000.0001)                   T
(PID.TID 0000.0001)     ;
(PID.TID 0000.0001) SEAICEadvScheme   = /* advection scheme for ice */
(PID.TID 0000.0001)                       7
(PID.TID 0000.0001)     ;
(PID.TID 0000.0001) SEAICEadvSchArea  = /* advection scheme for area */
(PID.TID 0000.0001)                       7
(PID.TID 0000.0001)     ;
(PID.TID 0000.0001) SEAICEadvSchHeff  = /* advection scheme for thickness */
(PID.TID 0000.0001)                       7
(PID.TID 0000.0001)     ;
(PID.TID 0000.0001) SEAICEadvSchSnow  = /* advection scheme for snow */
(PID.TID 0000.0001)                       7
(PID.TID 0000.0001)     ;
(PID.TID 0000.0001) SEAICEadvSchSalt  = /* advection scheme for salt */
(PID.TID 0000.0001)                       7
(PID.TID 0000.0001)     ;
(PID.TID 0000.0001) SEAICEdiffKhArea  = /* diffusivity (m^2/s) for area */
(PID.TID 0000.0001)                 2.000000000000000E+01
(PID.TID 0000.0001)     ;
(PID.TID 0000.0001) SEAICEdiffKhHeff  = /* diffusivity (m^2/s) for heff */
(PID.TID 0000.0001)                 2.000000000000000E+01
(PID.TID 0000.0001)     ;
(PID.TID 0000.0001) SEAICEdiffKhSnow  = /* diffusivity (m^2/s) for snow */
(PID.TID 0000.0001)                 2.000000000000000E+01
(PID.TID 0000.0001)     ;
(PID.TID 0000.0001) SEAICEdiffKhSalt  = /* diffusivity (m^2/s) for salt */
(PID.TID 0000.0001)                 2.000000000000000E+01
(PID.TID 0000.0001)     ;
(PID.TID 0000.0001) DIFF1             = /* parameter used in advect.F [m/s] */
(PID.TID 0000.0001)                 0.000000000000000E+00
(PID.TID 0000.0001)     ;
(PID.TID 0000.0001) 
(PID.TID 0000.0001)    Seaice thermodynamics configuration   > START <
(PID.TID 0000.0001)    -----------------------------------------------
(PID.TID 0000.0001) SEAICE_rhoIce     = /* density of sea ice (kg/m3) */
(PID.TID 0000.0001)                 9.100000000000000E+02
(PID.TID 0000.0001)     ;
(PID.TID 0000.0001) SEAICE_rhoSnow    = /* density of snow (kg/m3) */
(PID.TID 0000.0001)                 3.300000000000000E+02
(PID.TID 0000.0001)     ;
(PID.TID 0000.0001) SEAICE_rhoAir     = /* density of air (kg/m3) */
(PID.TID 0000.0001)                 1.200000000000000E+00
(PID.TID 0000.0001)     ;
(PID.TID 0000.0001) usePW79thermodynamics  = /* default 0-layer TD */
(PID.TID 0000.0001)                   T
(PID.TID 0000.0001)     ;
(PID.TID 0000.0001) SEAICE_lhEvap     = /* latent heat of evaporation */
(PID.TID 0000.0001)                 2.500000000000000E+06
(PID.TID 0000.0001)     ;
(PID.TID 0000.0001) SEAICE_lhFusion   = /* latent heat of fusion */
(PID.TID 0000.0001)                 3.340000000000000E+05
(PID.TID 0000.0001)     ;
(PID.TID 0000.0001) SEAICE_mcPheePiston = /* turbulent flux "piston velocity" a la McPhee (m/s) */
(PID.TID 0000.0001)                 4.000000000000000E-05
(PID.TID 0000.0001)     ;
(PID.TID 0000.0001) SEAICE_mcPheeTaper = /* tapering of turbulent flux (0.< <1.) for AREA=1. */
(PID.TID 0000.0001)                 0.000000000000000E+00
(PID.TID 0000.0001)     ;
(PID.TID 0000.0001) SEAICE_mcPheeStepFunc = /* replace linear tapering with step funct. */
(PID.TID 0000.0001)                   F
(PID.TID 0000.0001)     ;
(PID.TID 0000.0001) SEAICE_frazilFrac = /* frazil (T<tempFrz) to seaice conversion rate (0.< <1.) */
(PID.TID 0000.0001)                 3.000000000000000E-01
(PID.TID 0000.0001)     ;
(PID.TID 0000.0001) SEAICE_tempFrz0   = /* freezing temp. of sea water (intercept) */
(PID.TID 0000.0001)                -1.960000000000000E+00
(PID.TID 0000.0001)     ;
(PID.TID 0000.0001) SEAICE_dTempFrz_dS= /* freezing temp. of sea water (slope) */
(PID.TID 0000.0001)                 0.000000000000000E+00
(PID.TID 0000.0001)     ;
(PID.TID 0000.0001) SEAICE_growMeltByConv  = /* grow,melt by vert. conv. */
(PID.TID 0000.0001)                   F
(PID.TID 0000.0001)     ;
(PID.TID 0000.0001) SEAICE_doOpenWaterGrowth = /* grow by open water */
(PID.TID 0000.0001)                   T
(PID.TID 0000.0001)     ;
(PID.TID 0000.0001) SEAICE_doOpenWaterMelt = /* melt by open water */
(PID.TID 0000.0001)                   F
(PID.TID 0000.0001)     ;
(PID.TID 0000.0001) SEAICE_areaGainFormula = /* ice cover gain formula (1,2)*/
(PID.TID 0000.0001)                       1
(PID.TID 0000.0001)     1=from growth by ATM
(PID.TID 0000.0001)     2=from predicted growth by ATM
(PID.TID 0000.0001)     ;
(PID.TID 0000.0001) SEAICE_areaLossFormula = /* ice cover loss formula (1,2)*/
(PID.TID 0000.0001)                       1
(PID.TID 0000.0001)     1=from all but only melt conributions by ATM and OCN
(PID.TID 0000.0001)     2=from net melt-grow>0 by ATM and OCN
(PID.TID 0000.0001)     3=from predicted melt by ATM
(PID.TID 0000.0001)     ;
(PID.TID 0000.0001) HO                = /* nominal thickness of new ice */
(PID.TID 0000.0001)                 5.000000000000000E-01
(PID.TID 0000.0001)     ;
(PID.TID 0000.0001) HO_south               = /* Southern Ocean HO */
(PID.TID 0000.0001)                 5.000000000000000E-01
(PID.TID 0000.0001)     ;
(PID.TID 0000.0001) SEAICE_area_max        = /* set to les than 1. to mimic open leads */
(PID.TID 0000.0001)                 1.000000000000000E+00
(PID.TID 0000.0001)     ;
(PID.TID 0000.0001)    Sea ice has a variable salinity such that
(PID.TID 0000.0001) SEAICE_saltFrac = /* fraction of ocn salinity in new ice */
(PID.TID 0000.0001)                 3.000000000000000E-01
(PID.TID 0000.0001)     ;
(PID.TID 0000.0001) SEAICE_salinityTracer = /* test SITR varia. salinity */
(PID.TID 0000.0001)                   F
(PID.TID 0000.0001)     ;
(PID.TID 0000.0001) SEAICEuseFlooding = /* turn submerged snow into ice */
(PID.TID 0000.0001)                   T
(PID.TID 0000.0001)     ;
(PID.TID 0000.0001) 
(PID.TID 0000.0001)    Seaice air-sea fluxes configuration,   > START <
(PID.TID 0000.0001)    -----------------------------------------------
(PID.TID 0000.0001) SEAICEheatConsFix  = /* accound for ocn<->seaice advect. heat flux */
(PID.TID 0000.0001)                   F
(PID.TID 0000.0001)     ;
[...]
(PID.TID 0000.0001) %MON forcing_qnet_sd              =   9.9933953828210E+01
(PID.TID 0000.0001) %MON forcing_qnet_del2            =   4.0590743991821E+01
(PID.TID 0000.0001) %MON forcing_qsw_max              =  -9.2558323624061E-02
(PID.TID 0000.0001) %MON forcing_qsw_min              =  -4.2949888857857E+01
(PID.TID 0000.0001) %MON forcing_qsw_mean             =  -2.3734135490606E+01
(PID.TID 0000.0001) %MON forcing_qsw_sd               =   1.5571133244135E+01
(PID.TID 0000.0001) %MON forcing_qsw_del2             =   2.4537792270953E+00
(PID.TID 0000.0001) %MON forcing_empmr_max            =   5.5070332415943E-04
(PID.TID 0000.0001) %MON forcing_empmr_min            =  -1.1911327673397E-04
(PID.TID 0000.0001) %MON forcing_empmr_mean           =   2.4901397382751E-05
(PID.TID 0000.0001) %MON forcing_empmr_sd             =   1.2395990605929E-04
(PID.TID 0000.0001) %MON forcing_empmr_del2           =   6.1214313372949E-05
(PID.TID 0000.0001) %MON forcing_fu_max               =   3.7736515444232E-02
(PID.TID 0000.0001) %MON forcing_fu_min               =   4.5002869471264E-03
(PID.TID 0000.0001) %MON forcing_fu_mean              =   2.0650312932797E-02
(PID.TID 0000.0001) %MON forcing_fu_sd                =   9.3392348500671E-03
(PID.TID 0000.0001) %MON forcing_fu_del2              =   3.6940208117801E-03
(PID.TID 0000.0001) %MON forcing_fv_max               =   6.0409530330486E-04
(PID.TID 0000.0001) %MON forcing_fv_min               =  -2.7488395221449E-02
(PID.TID 0000.0001) %MON forcing_fv_mean              =  -5.9707504944535E-03
(PID.TID 0000.0001) %MON forcing_fv_sd                =   7.9879933658855E-03
(PID.TID 0000.0001) %MON forcing_fv_del2              =   8.6438081467702E-04
(PID.TID 0000.0001) %MON trAdv_CFL_u_max              =   1.0169923081965E-03
(PID.TID 0000.0001) %MON trAdv_CFL_v_max              =   9.3046483048765E-04
(PID.TID 0000.0001) %MON trAdv_CFL_w_max              =   3.1138170599303E-03
(PID.TID 0000.0001) %MON advcfl_uvel_max              =   1.0169406767207E-03
(PID.TID 0000.0001) %MON advcfl_vvel_max              =   9.1224172994318E-04
(PID.TID 0000.0001) %MON advcfl_wvel_max              =   2.7899485497089E-03
(PID.TID 0000.0001) %MON advcfl_W_hf_max              =   3.1138170599303E-03
(PID.TID 0000.0001) %MON pe_b_mean                    =   1.1707892469265E-05
(PID.TID 0000.0001) %MON ke_max                       =   1.5816967319233E-03
(PID.TID 0000.0001) %MON ke_mean                      =   1.8708348714144E-05
(PID.TID 0000.0001) %MON ke_vol                       =   2.0812333426156E+15
(PID.TID 0000.0001) %MON vort_r_min                   =  -5.6725434823692E-07
(PID.TID 0000.0001) %MON vort_r_max                   =   3.9495411102793E-07
(PID.TID 0000.0001) %MON vort_a_mean                  =   1.1459534918479E-04
(PID.TID 0000.0001) %MON vort_a_sd                    =   5.2710519889309E-06
(PID.TID 0000.0001) %MON vort_p_mean                  =   1.7066162530322E-04
(PID.TID 0000.0001) %MON vort_p_sd                    =   1.1051771525951E-04
(PID.TID 0000.0001) %MON surfExpan_theta_mean         =   6.1587388501540E-07
(PID.TID 0000.0001) %MON surfExpan_salt_mean          =  -2.4594371263763E-05
(PID.TID 0000.0001) // =======================================================
(PID.TID 0000.0001) // End MONITOR dynamic field statistics
(PID.TID 0000.0001) // =======================================================
(PID.TID 0000.0001) // =======================================================
(PID.TID 0000.0001) // Begin OBCS MONITOR field statistics
(PID.TID 0000.0001) // =======================================================
(PID.TID 0000.0001) %MON obc_E_uVel_max               =   1.5196190215647E-02
(PID.TID 0000.0001) %MON obc_E_uVel_min               =  -3.6727920174599E-02
(PID.TID 0000.0001) %MON obc_E_uVel_mean              =  -4.4418895776611E-04
(PID.TID 0000.0001) %MON obc_E_uVel_sd                =   7.1840489387000E-03
(PID.TID 0000.0001) %MON obc_E_uVel_Int               =  -9.1720124274008E+05
(PID.TID 0000.0001) %MON obc_W_uVel_max               =   1.8005758523941E-02
(PID.TID 0000.0001) %MON obc_W_uVel_min               =  -2.7252623811364E-02
(PID.TID 0000.0001) %MON obc_W_uVel_mean              =  -6.3465182588866E-04
(PID.TID 0000.0001) %MON obc_W_uVel_sd                =   7.6776894306928E-03
(PID.TID 0000.0001) %MON obc_W_uVel_Int               =  -7.3392865753505E+04
(PID.TID 0000.0001) %MON obc_N_vVel_max               =   1.5229964628816E-02
(PID.TID 0000.0001) %MON obc_N_vVel_min               =  -3.2034579664469E-02
(PID.TID 0000.0001) %MON obc_N_vVel_mean              =   1.1833664477493E-03
(PID.TID 0000.0001) %MON obc_N_vVel_sd                =   8.5601217363373E-03
(PID.TID 0000.0001) %MON obc_N_vVel_Int               =   1.5526952751432E+05
(PID.TID 0000.0001) %MON obc_S_vVel_max               =   4.4600074179471E-03
(PID.TID 0000.0001) %MON obc_S_vVel_min               =  -5.6353695690632E-02
(PID.TID 0000.0001) %MON obc_S_vVel_mean              =  -1.8315353998245E-03
(PID.TID 0000.0001) %MON obc_S_vVel_sd                =   5.2679812136830E-03
(PID.TID 0000.0001) %MON obc_S_vVel_Int               =  -1.5930363882973E+06
(PID.TID 0000.0001) // =======================================================
(PID.TID 0000.0001) // End OBCS MONITOR field statistics
(PID.TID 0000.0001) // =======================================================
(PID.TID 0000.0001) // =======================================================
(PID.TID 0000.0001) // Begin MONITOR SEAICE statistics
(PID.TID 0000.0001) // =======================================================
(PID.TID 0000.0001) %MON seaice_tsnumber              =                     6
(PID.TID 0000.0001) %MON seaice_time_sec              =   2.1600000000000E+04
(PID.TID 0000.0001) %MON seaice_uice_max              =   1.4502541908462E-01
(PID.TID 0000.0001) %MON seaice_uice_min              =  -6.7570216953754E-02
(PID.TID 0000.0001) %MON seaice_uice_mean             =   6.2767976148955E-02
(PID.TID 0000.0001) %MON seaice_uice_sd               =   4.8287525169815E-02
(PID.TID 0000.0001) %MON seaice_uice_del2             =   1.5496452982532E-02
(PID.TID 0000.0001) %MON seaice_vice_max              =  -1.6313465767069E-04
(PID.TID 0000.0001) %MON seaice_vice_min              =  -1.1594454944134E-01
(PID.TID 0000.0001) %MON seaice_vice_mean             =  -3.4724209892221E-02
(PID.TID 0000.0001) %MON seaice_vice_sd               =   3.2309452958595E-02
(PID.TID 0000.0001) %MON seaice_vice_del2             =   4.4084380957002E-03
(PID.TID 0000.0001) %MON seaice_area_max              =   9.9584535914525E-01
(PID.TID 0000.0001) %MON seaice_area_min              =   0.0000000000000E+00
(PID.TID 0000.0001) %MON seaice_area_mean             =   3.3514752564794E-01
(PID.TID 0000.0001) %MON seaice_area_sd               =   4.1240866916615E-01
(PID.TID 0000.0001) %MON seaice_area_del2             =   7.0731969390409E-02
(PID.TID 0000.0001) %MON seaice_heff_max              =   4.6703243943443E-01
(PID.TID 0000.0001) %MON seaice_heff_min              =   0.0000000000000E+00
(PID.TID 0000.0001) %MON seaice_heff_mean             =   7.8929247638199E-02
(PID.TID 0000.0001) %MON seaice_heff_sd               =   1.1833871621457E-01
(PID.TID 0000.0001) %MON seaice_heff_del2             =   1.3892369557509E-02
(PID.TID 0000.0001) %MON seaice_hsnow_max             =   8.1618467403464E-02
(PID.TID 0000.0001) %MON seaice_hsnow_min             =   0.0000000000000E+00
(PID.TID 0000.0001) %MON seaice_hsnow_mean            =   1.7390826186531E-02
(PID.TID 0000.0001) %MON seaice_hsnow_sd              =   2.4933615626585E-02
(PID.TID 0000.0001) %MON seaice_hsnow_del2            =   4.2904561248431E-03
(PID.TID 0000.0001) %MON seaice_hsalt_max             =   9.9096943661300E+01
(PID.TID 0000.0001) %MON seaice_hsalt_min             =   0.0000000000000E+00
(PID.TID 0000.0001) %MON seaice_hsalt_mean            =   8.9891186703967E+00
(PID.TID 0000.0001) %MON seaice_hsalt_sd              =   1.9646395895234E+01
(PID.TID 0000.0001) %MON seaice_hsalt_del2            =   9.4314251371758E+00
(PID.TID 0000.0001) // =======================================================
(PID.TID 0000.0001) // End MONITOR SEAICE statistics
(PID.TID 0000.0001) // =======================================================
(PID.TID 0000.0001) %CHECKPOINT         6 ckptA
(PID.TID 0000.0001)   Seconds in section "ALL                    [THE_MODEL_MAIN]":
(PID.TID 0000.0001)           User time:  0.30451900942716748
(PID.TID 0000.0001)         System time:   1.1754999868571758E-002
(PID.TID 0000.0001)     Wall clock time:  0.32224512100219727
(PID.TID 0000.0001)          No. starts:           1
(PID.TID 0000.0001)           No. stops:           1
(PID.TID 0000.0001)   Seconds in section "INITIALISE_FIXED       [THE_MODEL_MAIN]":
(PID.TID 0000.0001)           User time:   4.0184998419135809E-002
(PID.TID 0000.0001)         System time:   7.5340000912547112E-003
(PID.TID 0000.0001)     Wall clock time:   4.8924922943115234E-002
(PID.TID 0000.0001)          No. starts:           1
(PID.TID 0000.0001)           No. stops:           1
(PID.TID 0000.0001)   Seconds in section "THE_MAIN_LOOP          [THE_MODEL_MAIN]":
(PID.TID 0000.0001)           User time:  0.26431700959801674
(PID.TID 0000.0001)         System time:   4.2159999720752239E-003
(PID.TID 0000.0001)     Wall clock time:  0.27330088615417480
(PID.TID 0000.0001)          No. starts:           1
(PID.TID 0000.0001)           No. stops:           1
(PID.TID 0000.0001)   Seconds in section "INITIALISE_VARIA    [THE_MAIN_LOOP]":
(PID.TID 0000.0001)           User time:   1.1502999812364578E-002
(PID.TID 0000.0001)         System time:   2.7999747544527054E-005
(PID.TID 0000.0001)     Wall clock time:   1.6199827194213867E-002
(PID.TID 0000.0001)          No. starts:           1
(PID.TID 0000.0001)           No. stops:           1
(PID.TID 0000.0001)   Seconds in section "MAIN LOOP           [THE_MAIN_LOOP]":
(PID.TID 0000.0001)           User time:  0.25280300900340080
(PID.TID 0000.0001)         System time:   4.1819997131824493E-003
(PID.TID 0000.0001)     Wall clock time:  0.25708484649658203
(PID.TID 0000.0001)          No. starts:           1
(PID.TID 0000.0001)           No. stops:           1
(PID.TID 0000.0001)   Seconds in section "MAIN_DO_LOOP        [THE_MAIN_LOOP]":
(PID.TID 0000.0001)           User time:  0.25278499349951744
(PID.TID 0000.0001)         System time:   4.1750003583729267E-003
(PID.TID 0000.0001)     Wall clock time:  0.25706195831298828
(PID.TID 0000.0001)          No. starts:           5
(PID.TID 0000.0001)           No. stops:           5
(PID.TID 0000.0001)   Seconds in section "FORWARD_STEP        [MAIN_DO_LOOP]":
(PID.TID 0000.0001)           User time:  0.25275398790836334
(PID.TID 0000.0001)         System time:   4.1720005683600903E-003
(PID.TID 0000.0001)     Wall clock time:  0.25702595710754395
(PID.TID 0000.0001)          No. starts:           5
(PID.TID 0000.0001)           No. stops:           5
(PID.TID 0000.0001)   Seconds in section "LOAD_FIELDS_DRIVER  [FORWARD_STEP]":
(PID.TID 0000.0001)           User time:   3.9000213146209717E-003
(PID.TID 0000.0001)         System time:   1.5199976041913033E-004
(PID.TID 0000.0001)     Wall clock time:   4.0519237518310547E-003
(PID.TID 0000.0001)          No. starts:           5
(PID.TID 0000.0001)           No. stops:           5
(PID.TID 0000.0001)   Seconds in section "EXF_GETFORCING     [LOAD_FLDS_DRIVER]":
(PID.TID 0000.0001)           User time:   3.7920027971267700E-003
(PID.TID 0000.0001)         System time:   1.4800019562244415E-004
(PID.TID 0000.0001)     Wall clock time:   3.9420127868652344E-003
(PID.TID 0000.0001)          No. starts:           5
(PID.TID 0000.0001)           No. stops:           5
(PID.TID 0000.0001)   Seconds in section "EXTERNAL_FLDS_LOAD [LOAD_FLDS_DRIVER]":
(PID.TID 0000.0001)           User time:   2.5991350412368774E-005
(PID.TID 0000.0001)         System time:   1.0002404451370239E-006
(PID.TID 0000.0001)     Wall clock time:   2.6464462280273438E-005
(PID.TID 0000.0001)          No. starts:           5
(PID.TID 0000.0001)           No. stops:           5
(PID.TID 0000.0001)   Seconds in section "DO_ATMOSPHERIC_PHYS [FORWARD_STEP]":
(PID.TID 0000.0001)           User time:   1.9039958715438843E-005
(PID.TID 0000.0001)         System time:   1.0002404451370239E-006
(PID.TID 0000.0001)     Wall clock time:   2.0265579223632812E-005
(PID.TID 0000.0001)          No. starts:           5
(PID.TID 0000.0001)           No. stops:           5
(PID.TID 0000.0001)   Seconds in section "DO_OCEANIC_PHYS     [FORWARD_STEP]":
(PID.TID 0000.0001)           User time:   9.4662021845579147E-002
(PID.TID 0000.0001)         System time:   2.0800158381462097E-004
(PID.TID 0000.0001)     Wall clock time:   9.4882965087890625E-002
(PID.TID 0000.0001)          No. starts:           5
(PID.TID 0000.0001)           No. stops:           5
(PID.TID 0000.0001)   Seconds in section "SEAICE_MODEL    [DO_OCEANIC_PHYS]":
(PID.TID 0000.0001)           User time:   2.4118982255458832E-002
(PID.TID 0000.0001)         System time:   3.9000995457172394E-005
(PID.TID 0000.0001)     Wall clock time:   2.4158239364624023E-002
(PID.TID 0000.0001)          No. starts:           5
(PID.TID 0000.0001)           No. stops:           5
(PID.TID 0000.0001)   Seconds in section "SEAICE_DYNSOLVER   [SEAICE_MODEL]":
(PID.TID 0000.0001)           User time:   1.9164014607667923E-002
(PID.TID 0000.0001)         System time:   1.8999911844730377E-005
(PID.TID 0000.0001)     Wall clock time:   1.9181728363037109E-002
(PID.TID 0000.0001)          No. starts:           5
(PID.TID 0000.0001)           No. stops:           5
(PID.TID 0000.0001)   Seconds in section "KPP_CALC [DO_OCEANIC_PHYS]":
(PID.TID 0000.0001)           User time:   4.8798002302646637E-002
(PID.TID 0000.0001)         System time:   5.2000395953655243E-005
(PID.TID 0000.0001)     Wall clock time:   4.8853874206542969E-002
(PID.TID 0000.0001)          No. starts:          10
(PID.TID 0000.0001)           No. stops:          10
(PID.TID 0000.0001)   Seconds in section "DYNAMICS            [FORWARD_STEP]":
(PID.TID 0000.0001)           User time:   5.4707035422325134E-002
(PID.TID 0000.0001)         System time:   9.9930912256240845E-007
(PID.TID 0000.0001)     Wall clock time:   5.4709196090698242E-002
(PID.TID 0000.0001)          No. starts:           5
(PID.TID 0000.0001)           No. stops:           5
(PID.TID 0000.0001)   Seconds in section "SOLVE_FOR_PRESSURE  [FORWARD_STEP]":
(PID.TID 0000.0001)           User time:   4.0130093693733215E-003
(PID.TID 0000.0001)         System time:   1.5999190509319305E-005
(PID.TID 0000.0001)     Wall clock time:   4.0302276611328125E-003
(PID.TID 0000.0001)          No. starts:           5
(PID.TID 0000.0001)           No. stops:           5
(PID.TID 0000.0001)   Seconds in section "MOM_CORRECTION_STEP [FORWARD_STEP]":
(PID.TID 0000.0001)           User time:   3.1430274248123169E-003
(PID.TID 0000.0001)         System time:   0.0000000000000000
(PID.TID 0000.0001)     Wall clock time:   3.1397342681884766E-003
(PID.TID 0000.0001)          No. starts:           5
(PID.TID 0000.0001)           No. stops:           5
(PID.TID 0000.0001)   Seconds in section "INTEGR_CONTINUITY   [FORWARD_STEP]":
(PID.TID 0000.0001)           User time:   1.1580064892768860E-003
(PID.TID 0000.0001)         System time:   0.0000000000000000
(PID.TID 0000.0001)     Wall clock time:   1.1591911315917969E-003
(PID.TID 0000.0001)          No. starts:           5
(PID.TID 0000.0001)           No. stops:           5
(PID.TID 0000.0001)   Seconds in section "BLOCKING_EXCHANGES  [FORWARD_STEP]":
(PID.TID 0000.0001)           User time:   3.6699697375297546E-003
(PID.TID 0000.0001)         System time:   9.9996104836463928E-006
(PID.TID 0000.0001)     Wall clock time:   3.6785602569580078E-003
(PID.TID 0000.0001)          No. starts:          10
(PID.TID 0000.0001)           No. stops:          10
(PID.TID 0000.0001)   Seconds in section "THERMODYNAMICS      [FORWARD_STEP]":
(PID.TID 0000.0001)           User time:   7.8377015888690948E-002
(PID.TID 0000.0001)         System time:   8.0000609159469604E-006
(PID.TID 0000.0001)     Wall clock time:   7.8386306762695312E-002
(PID.TID 0000.0001)          No. starts:           5
(PID.TID 0000.0001)           No. stops:           5
(PID.TID 0000.0001)   Seconds in section "TRC_CORRECTION_STEP [FORWARD_STEP]":
(PID.TID 0000.0001)           User time:   2.1964311599731445E-005
(PID.TID 0000.0001)         System time:   0.0000000000000000
(PID.TID 0000.0001)     Wall clock time:   2.0265579223632812E-005
(PID.TID 0000.0001)          No. starts:           5
(PID.TID 0000.0001)           No. stops:           5
(PID.TID 0000.0001)   Seconds in section "MONITOR             [FORWARD_STEP]":
(PID.TID 0000.0001)           User time:   7.5480043888092041E-003
(PID.TID 0000.0001)         System time:   0.0000000000000000
(PID.TID 0000.0001)     Wall clock time:   7.5504779815673828E-003
(PID.TID 0000.0001)          No. starts:           5
(PID.TID 0000.0001)           No. stops:           5
(PID.TID 0000.0001)   Seconds in section "DO_THE_MODEL_IO     [FORWARD_STEP]":
(PID.TID 0000.0001)           User time:   1.2069866061210632E-003
(PID.TID 0000.0001)         System time:   1.7829993739724159E-003
(PID.TID 0000.0001)     Wall clock time:   3.0190944671630859E-003
(PID.TID 0000.0001)          No. starts:           5
(PID.TID 0000.0001)           No. stops:           5
(PID.TID 0000.0001)   Seconds in section "DO_WRITE_PICKUP     [FORWARD_STEP]":
(PID.TID 0000.0001)           User time:   1.6994774341583252E-005
(PID.TID 0000.0001)         System time:   1.9800001755356789E-003
(PID.TID 0000.0001)     Wall clock time:   2.0599365234375000E-003
(PID.TID 0000.0001)          No. starts:           5
(PID.TID 0000.0001)           No. stops:           5
(PID.TID 0000.0001) // ======================================================
(PID.TID 0000.0001) // Tile <-> Tile communication statistics
(PID.TID 0000.0001) // ======================================================
(PID.TID 0000.0001) // o Tile number: 000001
(PID.TID 0000.0001) //         No. X exchanges =              0
(PID.TID 0000.0001) //            Max. X spins =              0
(PID.TID 0000.0001) //            Min. X spins =     1000000000
(PID.TID 0000.0001) //          Total. X spins =              0
(PID.TID 0000.0001) //            Avg. X spins =       0.00E+00
(PID.TID 0000.0001) //         No. Y exchanges =              0
(PID.TID 0000.0001) //            Max. Y spins =              0
(PID.TID 0000.0001) //            Min. Y spins =     1000000000
(PID.TID 0000.0001) //          Total. Y spins =              0
(PID.TID 0000.0001) //            Avg. Y spins =       0.00E+00
(PID.TID 0000.0001) // o Tile number: 000002
(PID.TID 0000.0001) //         No. X exchanges =              0
(PID.TID 0000.0001) //            Max. X spins =              0
(PID.TID 0000.0001) //            Min. X spins =     1000000000
(PID.TID 0000.0001) //          Total. X spins =              0
(PID.TID 0000.0001) //            Avg. X spins =       0.00E+00
(PID.TID 0000.0001) //         No. Y exchanges =              0
(PID.TID 0000.0001) //            Max. Y spins =              0
(PID.TID 0000.0001) //            Min. Y spins =     1000000000
(PID.TID 0000.0001) //          Total. Y spins =              0
(PID.TID 0000.0001) //            Avg. Y spins =       0.00E+00
(PID.TID 0000.0001) // o Thread number: 000001
(PID.TID 0000.0001) //            No. barriers =           6300
(PID.TID 0000.0001) //      Max. barrier spins =              1
(PID.TID 0000.0001) //      Min. barrier spins =              1
(PID.TID 0000.0001) //     Total barrier spins =           6300
(PID.TID 0000.0001) //      Avg. barrier spins =       1.00E+00
PROGRAM MAIN: Execution ended Normally
