(PID.TID 0000.0001) 
(PID.TID 0000.0001) // ======================================================
(PID.TID 0000.0001) //                      MITgcm UV
(PID.TID 0000.0001) //                      =========
(PID.TID 0000.0001) // ======================================================
(PID.TID 0000.0001) // execution environment starting up...
(PID.TID 0000.0001) // Run starting Wed Apr  1 14:19:48 1998
(PID.TID 0000.0001) // on melville.lcs.mit.edu
(PID.TID 0000.0001) // account cnh
(PID.TID 0000.0001) // MITgcm UV Release: $Name:  $
(PID.TID 0000.0001) 
(PID.TID 0000.0001) // =======================================================
(PID.TID 0000.0001) // Execution Environment parameter file "eedata"
(PID.TID 0000.0001) // =======================================================
(PID.TID 0000.0001) ># Example "eedata" file
(PID.TID 0000.0001) ># Lines beginning "#" are comments
(PID.TID 0000.0001) ># nTx - No. threads per process in X
(PID.TID 0000.0001) ># nTy - No. threads per process in Y
(PID.TID 0000.0001) > &EEPARMS
(PID.TID 0000.0001) > &
(PID.TID 0000.0001) ># Note: Some systems use & as the
(PID.TID 0000.0001) ># namelist terminator. Other systems
(PID.TID 0000.0001) ># use a / character (as shown here).
(PID.TID 0000.0001) 
(PID.TID 0000.0001) // =======================================================
(PID.TID 0000.0001) // Computational Grid Specification ( see files "SIZE.h" )
(PID.TID 0000.0001) //                                  ( and "eedata"       )
(PID.TID 0000.0001) // =======================================================
(PID.TID 0000.0001)      nPx =    1 ; /* No. processes in X */
(PID.TID 0000.0001)      nPy =    1 ; /* No. processes in Y */
(PID.TID 0000.0001)      nSx =    1 ; /* No. tiles in X per process */
(PID.TID 0000.0001)      nSy =    1 ; /* No. tiles in Y per process */
(PID.TID 0000.0001)      sNx =   60 ; /* Tile size in X */
(PID.TID 0000.0001)      sNy =    3 ; /* Tile size in Y */
(PID.TID 0000.0001)      OLx =    3 ; /* Tile overlap distance in X */
(PID.TID 0000.0001)      OLy =    3 ; /* Tile overlap distance in Y */
(PID.TID 0000.0001)      nTx =    1 ; /* No. threads in X per process */
(PID.TID 0000.0001)      nTy =    1 ; /* No. threads in Y per process */
(PID.TID 0000.0001)       Nr =   20 ; /* No. levels in the vertical   */
(PID.TID 0000.0001)       nX =   60 ; /* Total domain size in X ( = nPx*nSx*sNx ) */
(PID.TID 0000.0001)       nY =    3 ; /* Total domain size in Y ( = nPy*nSy*sNy ) */
(PID.TID 0000.0001)   nTiles =    1 ; /* Total no. tiles per process ( = nSx*nSy ) */
(PID.TID 0000.0001)   nProcs =    1 ; /* Total no. processes ( = nPx*nPy ) */
(PID.TID 0000.0001) nThreads =    1 ; /* Total no. threads per process ( = nTx*nTy ) */
(PID.TID 0000.0001) usingMPI =    F ; /* Flag used to control whether MPI is in use */
(PID.TID 0000.0001)                   /*  note: To execute a program with MPI calls */
(PID.TID 0000.0001)                   /*  it must be launched appropriately e.g     */
(PID.TID 0000.0001)                   /*  "mpirun -np 64 ......"                    */
(PID.TID 0000.0001) 
(PID.TID 0000.0001) // ======================================================
(PID.TID 0000.0001) // Mapping of tiles to threads
(PID.TID 0000.0001) // ======================================================
(PID.TID 0000.0001) // -o- Thread   1, tiles (   1:   1,   1:   1)
(PID.TID 0000.0001) 
(PID.TID 0000.0001) // ======================================================
(PID.TID 0000.0001) // Tile <-> Tile connectvity table
(PID.TID 0000.0001) // ======================================================
(PID.TID 0000.0001) // Tile number: 000001 (process no. = 000001)
(PID.TID 0000.0001) //        WEST: Tile = 000001, Process = 000001, Comm = put
(PID.TID 0000.0001) //                bi = 000001, bj = 000001
(PID.TID 0000.0001) //        EAST: Tile = 000001, Process = 000001, Comm = put
(PID.TID 0000.0001) //                bi = 000001, bj = 000001
(PID.TID 0000.0001) //       SOUTH: Tile = 000001, Process = 000001, Comm = put
(PID.TID 0000.0001) //                bi = 000001, b OB Jn = 0 0 0 0 0 0 0 0 0 0 0 0 0 0 0 0 0 0 0 0 0 0 0 0 0 0 0 0 0 0 0 0 0 0 0 0
 0 0 0 0 0 0 0 0 0 0 0 0 0 0 0 0 0 0 0 0 0 0 0 0
 OB Js = 0 0 0 0 0 0 0 0 0 0 0 0 0 0 0 0 0 0 0 0 0 0 0 0 0 0 0 0 0 0 0 0 0 0 0 0
 0 0 0 0 0 0 0 0 0 0 0 0 0 0 0 0 0 0 0 0 0 0 0 0
 OB Ie = 60 60 60
 OB Iw = 1 1 1
j = 000001
(PID.TID 0000.0001) //       NORTH: Tile = 000001, Process = 000001, Comm = put
(PID.TID 0000.0001) //                bi = 000001, bj = 000001
(PID.TID 0000.0001) 
(PID.TID 0000.0001) // =======================================================
(PID.TID 0000.0001) // Model parameter file "data"
(PID.TID 0000.0001) // =======================================================
(PID.TID 0000.0001) ># ====================
(PID.TID 0000.0001) ># | Model parameters |
(PID.TID 0000.0001) ># ====================
(PID.TID 0000.0001) >#
(PID.TID 0000.0001) ># Continuous equation parameters
(PID.TID 0000.0001) > &PARM01
(PID.TID 0000.0001) ># tRef =  6.80906,  6.09232,  5.37557,  4.65883,  3.94209,  3.22534,   2.5086,  1.79186,  1.07511, 0.358372, -0.358372, -1.07511, -1.79186,  -2.5086, -3.22534, -3.94209, -4.65883, -5.37557, -6.09232,
(PID.TID 0000.0001) > Tref = 0.04842, 0.0433231, 0.0382263, 0.0331295,
(PID.TID 0000.0001) >        0.0280326, 0.0229358, 0.0178389, 0.0127421,
(PID.TID 0000.0001) >        0.00764526, 0.00254842, -0.00254842, -0.00764526,
(PID.TID 0000.0001) >       -0.0127421, -0.0178389, -0.0229358, -0.0280326,
(PID.TID 0000.0001) >       -0.0331295, -0.0382263, -0.0433231, -0.04842,
(PID.TID 0000.0001) > sRef= 8*35.,
(PID.TID 0000.0001) > viscAz=1.E-3,
(PID.TID 0000.0001) > viscAh=1.0E-2,
(PID.TID 0000.0001) > no_slip_sides=.FALSE.,
(PID.TID 0000.0001) > no_slip_bottom=.FALSE.,
(PID.TID 0000.0001) > viscA4=0.E12,
(PID.TID 0000.0001) > diffKhT=1.0E-2
(PID.TID 0000.0001) > diffKzT=1.E-3,
(PID.TID 0000.0001) > diffKhS=1.E3,
(PID.TID 0000.0001) > diffKzS=1.E-5,
(PID.TID 0000.0001) > f0=0.0,
(PID.TID 0000.0001) > beta=0.E-11,
(PID.TID 0000.0001) > tAlpha=2.E-4,
(PID.TID 0000.0001) > sBeta =0.E-4,
(PID.TID 0000.0001) > gravity=9.81,
(PID.TID 0000.0001) > gBaro=9.81,
(PID.TID 0000.0001) > rigidLid=.FALSE.,
(PID.TID 0000.0001) > implicitFreeSurface=.TRUE.,
(PID.TID 0000.0001) > eosType='LINEAR',
(PID.TID 0000.0001) > hFacMin=0.2,
(PID.TID 0000.0001) > openBoundaries=.TRUE.,
(PID.TID 0000.0001) > nonHydrostatic=.FALSE.,
(PID.TID 0000.0001) > readBinaryPrec=64,
(PID.TID 0000.0001) > globalFiles=.TRUE.,
(PID.TID 0000.0001) > writeBinaryPrec=64,
(PID.TID 0000.0001) > writeStatePrec=64,
(PID.TID 0000.0001) > &
(PID.TID 0000.0001) >
(PID.TID 0000.0001) ># Elliptic solver parameters
(PID.TID 0000.0001) > &PARM02
(PID.TID 0000.0001) > cg2dMaxIters=1000,
(PID.TID 0000.0001) > cg2dTargetResidual=1.E-13,
(PID.TID 0000.0001) > cg3dMaxIters=400,
(PID.TID 0000.0001) > cg3dTargetResidual=1.E-13,
(PID.TID 0000.0001) > &
(PID.TID 0000.0001) >
(PID.TID 0000.0001) ># Time stepping parameters
(PID.TID 0000.0001) > &PARM03
(PID.TID 0000.0001) > niter0=0,
(PID.TID 0000.0001) > nTimeSteps=20,
(PID.TID 0000.0001) > deltaT=10.,
(PID.TID 0000.0001) > abEps=0.1,
(PID.TID 0000.0001) > pChkptFreq=300000.0,
(PID.TID 0000.0001) > chkptFreq=0.0,
(PID.TID 0000.0001) > dumpFreq=10000.,
(PID.TID 0000.0001) > &
(PID.TID 0000.0001) >
(PID.TID 0000.0001) ># Gridding parameters
(PID.TID 0000.0001) > &PARM04
(PID.TID 0000.0001) > usingCartesianGrid=.TRUE.,
(PID.TID 0000.0001) > usingSphericalPolarGrid=.FALSE.,
(PID.TID 0000.0001) > delXfile='delXvar'
(PID.TID 0000.0001) > delY=3*5.e3,
(PID.TID 0000.0001) > delZ=20*10.000000,
(PID.TID 0000.0001) > &
(PID.TID 0000.0001) >
(PID.TID 0000.0001) ># Input datasets
(PID.TID 0000.0001) > &PARM05
(PID.TID 0000.0001) > hydrogThetaFile='T.init',
(PID.TID 0000.0001) > bathyFile='topog.slope',
(PID.TID 0000.0001) > &
(PID.TID 0000.0001) >
(PID.TID 0000.0001) ># Open-boundaries
(PID.TID 0000.0001) > &PARM06
(PID.TID 0000.0001) > OB_Ieast=3*-1,
(PID.TID 0000.0001) > OB_Iwest=3*1,
(PID.TID 0000.0001) > &
(PID.TID 0000.0001) 
(PID.TID 0000.0001)  PACKAGE_INIT: opening data.pkg
(PID.TID 0000.0001)  OPEN_COPY_DATA_FILE: opening file data.pkg
(PID.TID 0000.0001) // =======================================================
(PID.TID 0000.0001) // Parameter file "data.pkg"
(PID.TID 0000.0001) // =======================================================
(PID.TID 0000.0001) ># Packages
(PID.TID 0000.0001) > &PACKAGES
(PID.TID 0000.0001) > &
(PID.TID 0000.0001) 
(PID.TID 0000.0001)  PACKAGE_INIT: finished reading data.pkg
(PID.TID 0000.0001)  MDSREADFIELD: opening global file: topog.slope
(PID.TID 0000.0001) // =======================================================
(PID.TID 0000.0001) // Field Model depths at iteration          1
(PID.TID 0000.0001) // CMIN =         -2.000000000000000E+02
(PID.TID 0000.0001) // CMAX =         -2.000000000000000E+02
(PID.TID 0000.0001) // CINT =          0.000000000000000E+00
(PID.TID 0000.0001) // SYMBOLS (CMIN->CMAX): -abcdefghijklmnopqrstuvwxyz+
(PID.TID 0000.0001) //                  0.0: .
(PID.TID 0000.0001) // RANGE I (Lo:Hi:Step):(  -2:  63:   1)
(PID.TID 0000.0001) // RANGE J (Lo:Hi:Step):(   6:  -2:  -1)
(PID.TID 0000.0001) // RANGE K (Lo:Hi:Step):(   1:   1:   1)
(PID.TID 0000.0001) // =======================================================
(PID.TID 0000.0001) K =   1
(PID.TID 0000.0001) //                I=7       I=17      I=27      I=37      I=47      I=57
(PID.TID 0000.0001) // |--J--|**0123456|890123456|890123456|890123456|890123456|890123456|890123
(PID.TID 0000.0001) //      6 ------------------------------------------------------------------
(PID.TID 0000.0001) //      5 ------------------------------------------------------------------
(PID.TID 0000.0001) //      4 ------------------------------------------------------------------
(PID.TID 0000.0001) //      3 ------------------------------------------------------------------
(PID.TID 0000.0001) //      2 ------------------------------------------------------------------
(PID.TID 0000.0001) //      1 ------------------------------------------------------------------
(PID.TID 0000.0001) //      0 ------------------------------------------------------------------
(PID.TID 0000.0001) //     -1 ------------------------------------------------------------------
(PID.TID 0000.0001) //     -2 ------------------------------------------------------------------
(PID.TID 0000.0001) // =======================================================
(PID.TID 0000.0001) // END OF FIELD                                          =
(PID.TID 0000.0001) // =======================================================
(PID.TID 0000.0001) 
(PID.TID 0000.0001) // =======================================================
(PID.TID 0000.0001) // Field Model Depths K Index at iteration          1
(PID.TID 0000.0001) // CMIN =          2.000000000000000E+01
(PID.TID 0000.0001) // CMAX =          2.000000000000000E+01
(PID.TID 0000.0001) // CINT =          0.000000000000000E+00
(PID.TID 0000.0001) // SYMBOLS (CMIN->CMAX): -abcdefghijklmnopqrstuvwxyz+
(PID.TID 0000.0001) //                  0.0: .
(PID.TID 0000.0001) // RANGE I (Lo:Hi:Step):(  -2:  63:   1)
(PID.TID 0000.0001) // RANGE J (Lo:Hi:Step):(   6:  -2:  -1)
(PID.TID 0000.0001) // RANGE K (Lo:Hi:Step):(   1:   1:   1)
(PID.TID 0000.0001) // =======================================================
(PID.TID 0000.0001) K =   1
(PID.TID 0000.0001) //                I=7       I=17      I=27      I=37      I=47      I=57
(PID.TID 0000.0001) // |--J--|**0123456|890123456|890123456|890123456|890123456|890123456|890123
(PID.TID 0000.0001) //      6 ------------------------------------------------------------------
(PID.TID 0000.0001) //      5 ------------------------------------------------------------------
(PID.TID 0000.0001) //      4 ------------------------------------------------------------------
(PID.TID 0000.0001) //      3 ------------------------------------------------------------------
(PID.TID 0000.0001) //      2 ------------------------------------------------------------------
(PID.TID 0000.0001) //      1 ------------------------------------------------------------------
(PID.TID 0000.0001) //      0 ------------------------------------------------------------------
(PID.TID 0000.0001) //     -1 ------------------------------------------------------------------
(PID.TID 0000.0001) //     -2 ------------------------------------------------------------------
(PID.TID 0000.0001) // =======================================================
(PID.TID 0000.0001) // END OF FIELD                                          =
(PID.TID 0000.0001) // =======================================================
(PID.TID 0000.0001) 
(PID.TID 0000.0001) // CG2D normalisation factor =          0.2222556441235942100418700E-04
(PID.TID 0000.0001) 
(PID.TID 0000.0001) // CG3D normalisation factor =          0.9350593609405776953497329E-06
(PID.TID 0000.0001) 
(PID.TID 0000.0001) // =======================================================
(PID.TID 0000.0001) // Model configuration
(PID.TID 0000.0001) // =======================================================
(PID.TID 0000.0001) //
(PID.TID 0000.0001) // "Physical" paramters ( PARM01 in namelist )
(PID.TID 0000.0001) //
(PID.TID 0000.0001) tRef =   /* Reference temperature profile ( oC or oK ) */
(PID.TID 0000.0001)                 4.842000000000000E-02,      /* K =  1 */
(PID.TID 0000.0001)                 4.332310000000000E-02,      /* K =  2 */
(PID.TID 0000.0001)                 3.822630000000000E-02,      /* K =  3 */
(PID.TID 0000.0001)                 3.312950000000000E-02,      /* K =  4 */
(PID.TID 0000.0001)                 2.803260000000000E-02,      /* K =  5 */
(PID.TID 0000.0001)                 2.293580000000000E-02,      /* K =  6 */
(PID.TID 0000.0001)                 1.783890000000000E-02,      /* K =  7 */
(PID.TID 0000.0001)                 1.274210000000000E-02,      /* K =  8 */
(PID.TID 0000.0001)                 7.645260000000000E-03,      /* K =  9 */
(PID.TID 0000.0001)                 2.548420000000000E-03,      /* K = 10 */
(PID.TID 0000.0001)                -2.548420000000000E-03,      /* K = 11 */
(PID.TID 0000.0001)                -7.645260000000000E-03,      /* K = 12 */
(PID.TID 0000.0001)                -1.274210000000000E-02,      /* K = 13 */
(PID.TID 0000.0001)                -1.783890000000000E-02,      /* K = 14 */
(PID.TID 0000.0001)                -2.293580000000000E-02,      /* K = 15 */
(PID.TID 0000.0001)                -2.803260000000000E-02,      /* K = 16 */
(PID.TID 0000.0001)                -3.312950000000000E-02,      /* K = 17 */
(PID.TID 0000.0001)                -3.822630000000000E-02,      /* K = 18 */
(PID.TID 0000.0001)                -4.332310000000000E-02,      /* K = 19 */
(PID.TID 0000.0001)                -4.842000000000000E-02       /* K = 20 */
(PID.TID 0000.0001)     ;
(PID.TID 0000.0001) sRef =   /* Reference salinity profile ( ppt ) */
(PID.TID 0000.0001)     8 @  3.500000000000000E+01,             /* K =  1:  8 */
(PID.TID 0000.0001)    12 @  0.000000000000000E+00              /* K =  9: 20 */
(PID.TID 0000.0001)     ;
(PID.TID 0000.0001) viscAh =   /* Lateral eddy viscosity ( m^2/s ) */
(PID.TID 0000.0001)                 1.000000000000000E-02
(PID.TID 0000.0001)     ;
(PID.TID 0000.0001) viscAh =   /* Lateral biharmonic viscosity ( m^4/s ) */
(PID.TID 0000.0001)                 0.000000000000000E+00
(PID.TID 0000.0001)     ;
(PID.TID 0000.0001) no_slip_sides =  /* Viscous BCs: No-slip sides */
(PID.TID 0000.0001)                   F
(PID.TID 0000.0001)     ;
(PID.TID 0000.0001) viscAz =   /* Vertical eddy viscosity ( m^2/s ) */
(PID.TID 0000.0001)                 1.000000000000000E-03
(PID.TID 0000.0001)     ;
(PID.TID 0000.0001) viscAr =   /* Vertical eddy viscosity ( units of r^2/s ) */
(PID.TID 0000.0001)                 1.000000000000000E-03
(PID.TID 0000.0001)     ;
(PID.TID 0000.0001) diffKhT =   /* Laplacian diffusion of heat laterally ( m^2/s ) */
(PID.TID 0000.0001)                 1.000000000000000E-02
(PID.TID 0000.0001)     ;
(PID.TID 0000.0001) diffK4T =   /* Bihaarmonic diffusion of heat laterally ( m^4/s ) */
(PID.TID 0000.0001)                 0.000000000000000E+00
(PID.TID 0000.0001)     ;
(PID.TID 0000.0001) diffKzT =   /* Laplacian diffusion of heat vertically ( m^2/s ) */
(PID.TID 0000.0001)                 1.000000000000000E-03
(PID.TID 0000.0001)     ;
(PID.TID 0000.0001) diffKrT =   /* Laplacian diffusion of heat vertically ( m^2/s ) */
(PID.TID 0000.0001)                 1.000000000000000E-03
(PID.TID 0000.0001)     ;
(PID.TID 0000.0001) diffKhS =   /* Laplacian diffusion of salt laterally ( m^2/s ) */
(PID.TID 0000.0001)                 1.000000000000000E+03
(PID.TID 0000.0001)     ;
(PID.TID 0000.0001) diffK4S =   /* Bihaarmonic diffusion of salt laterally ( m^4/s ) */
(PID.TID 0000.0001)                 0.000000000000000E+00
(PID.TID 0000.0001)     ;
(PID.TID 0000.0001) diffKzS =   /* Laplacian diffusion of salt vertically ( m^2/s ) */
(PID.TID 0000.0001)                 1.000000000000000E-05
(PID.TID 0000.0001)     ;
(PID.TID 0000.0001) diffKrS =   /* Laplacian diffusion of salt vertically ( m^2/s ) */
(PID.TID 0000.0001)                 1.000000000000000E-05
(PID.TID 0000.0001)     ;
(PID.TID 0000.0001) tAlpha =   /* Linear EOS thermal expansion coefficient ( 1/degree ) */
(PID.TID 0000.0001)                 2.000000000000000E-04
(PID.TID 0000.0001)     ;
(PID.TID 0000.0001) sBeta =   /* Linear EOS haline contraction coefficient ( 1/ppt ) */
(PID.TID 0000.0001)                 0.000000000000000E+00
(PID.TID 0000.0001)     ;
(PID.TID 0000.0001) rhonil =   /* Reference density ( kg/m^3 ) */
(PID.TID 0000.0001)                 9.998000000000000E+02
(PID.TID 0000.0001)     ;
(PID.TID 0000.0001) rhoConst =   /* Reference density ( kg/m^3 ) */
(PID.TID 0000.0001)                 9.998000000000000E+02
(PID.TID 0000.0001)     ;
(PID.TID 0000.0001) gravity =   /* Gravitational acceleration ( m/s^2 ) */
(PID.TID 0000.0001)                 9.810000000000000E+00
(PID.TID 0000.0001)     ;
(PID.TID 0000.0001) gBaro =   /* Barotropic gravity ( m/s^2 ) */
(PID.TID 0000.0001)                 9.810000000000000E+00
(PID.TID 0000.0001)     ;
(PID.TID 0000.0001) f0 =   /* Reference coriolis parameter ( 1/s ) */
(PID.TID 0000.0001)                 0.000000000000000E+00
(PID.TID 0000.0001)     ;
(PID.TID 0000.0001) beta =   /* Beta ( 1/(m.s) ) */
(PID.TID 0000.0001)                 0.000000000000000E+00
(PID.TID 0000.0001)     ;
(PID.TID 0000.0001) freeSurfFac =   /* Implcit free surface factor */
(PID.TID 0000.0001)                 1.000000000000000E+00
(PID.TID 0000.0001)     ;
(PID.TID 0000.0001) implicitFreeSurface =   /* Implicit free surface on/off flag */
(PID.TID 0000.0001)                   T
(PID.TID 0000.0001)     ;
(PID.TID 0000.0001) rigidLid =   /* Rigid lid on/off flag */
(PID.TID 0000.0001)                   F
(PID.TID 0000.0001)     ;
(PID.TID 0000.0001) momStepping =  /* Momentum equation on/off flag */
(PID.TID 0000.0001)                   T
(PID.TID 0000.0001)     ;
(PID.TID 0000.0001) momAdvection =  /* Momentum advection on/off flag */
(PID.TID 0000.0001)                   T
(PID.TID 0000.0001)     ;
(PID.TID 0000.0001) momViscosity =  /* Momentum viscosity on/off flag */
(PID.TID 0000.0001)                   T
(PID.TID 0000.0001)     ;
(PID.TID 0000.0001) useCoriolis =  /* Coriolis on/off flag */
(PID.TID 0000.0001)                   T
(PID.TID 0000.0001)     ;
(PID.TID 0000.0001) momForcing =  /* Momentum forcing on/off flag */
(PID.TID 0000.0001)                   T
(PID.TID 0000.0001)     ;
(PID.TID 0000.0001) momPressureForcing =  /* Momentum pressure term on/off flag */
(PID.TID 0000.0001)                   T
(PID.TID 0000.0001)     ;
(PID.TID 0000.0001) tempStepping =  /* Temperature equation on/off flag */
(PID.TID 0000.0001)                   T
(PID.TID 0000.0001)     ;
(PID.TID 0000.0001) openBoundaries =  /* OpenBoundaries on/off flag */
(PID.TID 0000.0001)                   T
(PID.TID 0000.0001)     ;
(PID.TID 0000.0001) nonHydrostatic =  /* Non-Hydrostatic on/off flag */
(PID.TID 0000.0001)                   F
(PID.TID 0000.0001)     ;
(PID.TID 0000.0001) //
(PID.TID 0000.0001) // Elliptic solver(s) paramters ( PARM02 in namelist )
(PID.TID 0000.0001) //
(PID.TID 0000.0001) cg2dMaxIters =   /* Upper limit on 2d con. grad iterations  */
(PID.TID 0000.0001)                    1000
(PID.TID 0000.0001)     ;
(PID.TID 0000.0001) cg2dChkResFreq =   /* 2d con. grad convergence test frequency */
(PID.TID 0000.0001)                       1
(PID.TID 0000.0001)     ;
(PID.TID 0000.0001) cg2dTargetResidual =   /* 2d con. grad target residual  */
(PID.TID 0000.0001)                 1.000000000000000E-13
(PID.TID 0000.0001)     ;
(PID.TID 0000.0001) //
(PID.TID 0000.0001) // Time stepping paramters ( PARM03 in namelist )
(PID.TID 0000.0001) //
(PID.TID 0000.0001) nIter0 =   /* Base timestep number  */
(PID.TID 0000.0001)                       0
(PID.TID 0000.0001)     ;
(PID.TID 0000.0001) nTimeSteps =   /* Number of timesteps */
(PID.TID 0000.0001)                      20
(PID.TID 0000.0001)     ;
(PID.TID 0000.0001) deltatTmom =   /* Momentum equation timestep ( s ) */
(PID.TID 0000.0001)                 1.000000000000000E+01
(PID.TID 0000.0001)     ;
(PID.TID 0000.0001) deltatTtracer =   /* Tracer equation timestep ( s ) */
(PID.TID 0000.0001)                 1.000000000000000E+01
(PID.TID 0000.0001)     ;
(PID.TID 0000.0001) deltatTClock  =   /* Model clock timestep ( s ) */
(PID.TID 0000.0001)                 1.000000000000000E+01
(PID.TID 0000.0001)     ;
(PID.TID 0000.0001) cAdjFreq =   /* Convective adjustment interval ( s ) */
(PID.TID 0000.0001)                 0.000000000000000E+00
(PID.TID 0000.0001)     ;
(PID.TID 0000.0001) abeps =   /* Adams-Bashforth stabilizing weight */
(PID.TID 0000.0001)                 1.000000000000000E-01
(PID.TID 0000.0001)     ;
(PID.TID 0000.0001) tauCD =   /* CD coupling time-scale ( s ) */
(PID.TID 0000.0001)                 1.000000000000000E+01
(PID.TID 0000.0001)     ;
(PID.TID 0000.0001) rCD =   /* Normalised CD coupling parameter */
(PID.TID 0000.0001)                 0.000000000000000E+00
(PID.TID 0000.0001)     ;
(PID.TID 0000.0001) startTime =   /* Run start time ( s ). */
(PID.TID 0000.0001)                 0.000000000000000E+00
(PID.TID 0000.0001)     ;
(PID.TID 0000.0001) endTime =   /* Integration ending time ( s ). */
(PID.TID 0000.0001)                 2.000000000000000E+02
(PID.TID 0000.0001)     ;
(PID.TID 0000.0001) pChkPtFreq =   /* Permanent restart/checkpoint file interval ( s ). */
(PID.TID 0000.0001)                 3.000000000000000E+05
(PID.TID 0000.0001)     ;
(PID.TID 0000.0001) chkPtFreq =   /* Rolling restart/checkpoint file interval ( s ). */
(PID.TID 0000.0001)                 0.000000000000000E+00
(PID.TID 0000.0001)     ;
(PID.TID 0000.0001) dumpFreq =   /* Model state write out interval ( s ). */
(PID.TID 0000.0001)                 1.000000000000000E+04
(PID.TID 0000.0001)     ;
(PID.TID 0000.0001) //
(PID.TID 0000.0001) // Gridding paramters ( PARM04 in namelist )
(PID.TID 0000.0001) //
(PID.TID 0000.0001) usingCartesianGrid =   /* Cartesian coordinates flag ( True / False ) */
(PID.TID 0000.0001)                   T
(PID.TID 0000.0001)     ;
(PID.TID 0000.0001) usingSphericalPolarGrid =   /* Spherical coordinates flag ( True / False ) */
(PID.TID 0000.0001)                   F
(PID.TID 0000.0001)     ;
(PID.TID 0000.0001) delZ =    /* W spacing ( m ) */
(PID.TID 0000.0001)    20 @  1.000000000000000E+01              /* K =  1: 20 */
(PID.TID 0000.0001)     ;
(PID.TID 0000.0001) delP =    /* W spacing ( Pa ) */
(PID.TID 0000.0001)    20 @  1.234567000000000E+05              /* K =  1: 20 */
(PID.TID 0000.0001)     ;
(PID.TID 0000.0001) delR =    /* W spacing ( units of r ) */
(PID.TID 0000.0001)    20 @  1.000000000000000E+01              /* K =  1: 20 */
(PID.TID 0000.0001)     ;
(PID.TID 0000.0001) delX =    /* U spacing ( m - cartesian, degrees - spherical ) */
(PID.TID 0000.0001)    60 @  2.180327868852459E+02              /* I =  1: 60 */
(PID.TID 0000.0001)     ;
(PID.TID 0000.0001) delY =    /* V spacing ( m - cartesian, degrees - spherical ) */
(PID.TID 0000.0001)     3 @  5.000000000000000E+03              /* J =  1:  3 */
(PID.TID 0000.0001)     ;
(PID.TID 0000.0001) phiMin =    /* South edge (ignored - cartesian, degrees - spherical ) */
(PID.TID 0000.0001)                 0.000000000000000E+00
(PID.TID 0000.0001)     ;
(PID.TID 0000.0001) thetaMin =    /* West edge ( ignored - cartesian, degrees - spherical ) */
(PID.TID 0000.0001)                 0.000000000000000E+00
(PID.TID 0000.0001)     ;
(PID.TID 0000.0001) rSphere =    /* Radius ( ignored - cartesian, m - spherical ) */
(PID.TID 0000.0001)                 6.370000000000000E+06
(PID.TID 0000.0001)     ;
(PID.TID 0000.0001) xcoord =    /* P-point X coord ( m - cartesian, degrees - spherical ) */
(PID.TID 0000.0001)                 1.090163934426230E+02,      /* I =  1 */
(PID.TID 0000.0001)                 3.270491803278688E+02,      /* I =  2 */
(PID.TID 0000.0001)                 5.450819672131148E+02,      /* I =  3 */
(PID.TID 0000.0001)                 7.631147540983607E+02,      /* I =  4 */
(PID.TID 0000.0001)                 9.811475409836066E+02,      /* I =  5 */
(PID.TID 0000.0001)                 1.199180327868853E+03,      /* I =  6 */
(PID.TID 0000.0001)                 1.417213114754098E+03,      /* I =  7 */
(PID.TID 0000.0001)                 1.635245901639344E+03,      /* I =  8 */
(PID.TID 0000.0001)                 1.853278688524590E+03,      /* I =  9 */
(PID.TID 0000.0001)                 2.071311475409836E+03,      /* I = 10 */
(PID.TID 0000.0001)                 2.289344262295082E+03,      /* I = 11 */
(PID.TID 0000.0001)                 2.507377049180328E+03,      /* I = 12 */
(PID.TID 0000.0001)                 2.725409836065574E+03,      /* I = 13 */
(PID.TID 0000.0001)                 2.943442622950820E+03,      /* I = 14 */
(PID.TID 0000.0001)                 3.161475409836066E+03,      /* I = 15 */
(PID.TID 0000.0001)                 3.379508196721312E+03,      /* I = 16 */
(PID.TID 0000.0001)                 3.597540983606557E+03,      /* I = 17 */
(PID.TID 0000.0001)                 3.815573770491803E+03,      /* I = 18 */
(PID.TID 0000.0001)                 4.033606557377049E+03,      /* I = 19 */
(PID.TID 0000.0001)                 4.251639344262296E+03,      /* I = 20 */
(PID.TID 0000.0001)                 4.469672131147541E+03,      /* I = 21 */
(PID.TID 0000.0001)                 4.687704918032787E+03,      /* I = 22 */
(PID.TID 0000.0001)                 4.905737704918033E+03,      /* I = 23 */
(PID.TID 0000.0001)                 5.123770491803279E+03,      /* I = 24 */
(PID.TID 0000.0001)                 5.341803278688525E+03,      /* I = 25 */
(PID.TID 0000.0001)                 5.559836065573771E+03,      /* I = 26 */
(PID.TID 0000.0001)                 5.777868852459017E+03,      /* I = 27 */
(PID.TID 0000.0001)                 5.995901639344263E+03,      /* I = 28 */
(PID.TID 0000.0001)                 6.213934426229508E+03,      /* I = 29 */
(PID.TID 0000.0001)                 6.431967213114754E+03,      /* I = 30 */
(PID.TID 0000.0001)                 6.650000000000000E+03,      /* I = 31 */
(PID.TID 0000.0001)                 6.868032786885246E+03,      /* I = 32 */
(PID.TID 0000.0001)                 7.086065573770492E+03,      /* I = 33 */
(PID.TID 0000.0001)                 7.304098360655738E+03,      /* I = 34 */
(PID.TID 0000.0001)                 7.522131147540984E+03,      /* I = 35 */
(PID.TID 0000.0001)                 7.740163934426230E+03,      /* I = 36 */
(PID.TID 0000.0001)                 7.958196721311476E+03,      /* I = 37 */
(PID.TID 0000.0001)                 8.176229508196721E+03,      /* I = 38 */
(PID.TID 0000.0001)                 8.394262295081968E+03,      /* I = 39 */
(PID.TID 0000.0001)                 8.612295081967213E+03,      /* I = 40 */
(PID.TID 0000.0001)                 8.830327868852459E+03,      /* I = 41 */
(PID.TID 0000.0001)                 9.048360655737706E+03,      /* I = 42 */
(PID.TID 0000.0001)                 9.266393442622952E+03,      /* I = 43 */
(PID.TID 0000.0001)                 9.484426229508197E+03,      /* I = 44 */
(PID.TID 0000.0001)                 9.702459016393443E+03,      /* I = 45 */
(PID.TID 0000.0001)                 9.920491803278688E+03,      /* I = 46 */
(PID.TID 0000.0001)                 1.013852459016394E+04,      /* I = 47 */
(PID.TID 0000.0001)                 1.035655737704918E+04,      /* I = 48 */
(PID.TID 0000.0001)                 1.057459016393443E+04,      /* I = 49 */
(PID.TID 0000.0001)                 1.079262295081967E+04,      /* I = 50 */
(PID.TID 0000.0001)                 1.101065573770492E+04,      /* I = 51 */
(PID.TID 0000.0001)                 1.122868852459016E+04,      /* I = 52 */
(PID.TID 0000.0001)                 1.144672131147541E+04,      /* I = 53 */
(PID.TID 0000.0001)                 1.166475409836066E+04,      /* I = 54 */
(PID.TID 0000.0001)                 1.188278688524590E+04,      /* I = 55 */
(PID.TID 0000.0001)                 1.210081967213115E+04,      /* I = 56 */
(PID.TID 0000.0001)                 1.231885245901639E+04,      /* I = 57 */
(PID.TID 0000.0001)                 1.253688524590164E+04,      /* I = 58 */
(PID.TID 0000.0001)                 1.275491803278689E+04,      /* I = 59 */
(PID.TID 0000.0001)                 1.297295081967213E+04       /* I = 60 */
(PID.TID 0000.0001)     ;
(PID.TID 0000.0001) ycoord =    /* P-point Y coord ( m - cartesian, degrees - spherical ) */
(PID.TID 0000.0001)                 2.500000000000000E+03,      /* J =  1 */
(PID.TID 0000.0001)                 7.500000000000000E+03,      /* J =  2 */
(PID.TID 0000.0001)                 1.250000000000000E+04       /* J =  3 */
(PID.TID 0000.0001)     ;
(PID.TID 0000.0001) rcoord =    /* P-point R coordinate (  units of r ) */
(PID.TID 0000.0001)                -5.000000000000000E+00,      /* K =  1 */
(PID.TID 0000.0001)                -1.500000000000000E+01,      /* K =  2 */
(PID.TID 0000.0001)                -2.500000000000000E+01,      /* K =  3 */
(PID.TID 0000.0001)                -3.500000000000000E+01,      /* K =  4 */
(PID.TID 0000.0001)                -4.500000000000000E+01,      /* K =  5 */
(PID.TID 0000.0001)                -5.500000000000000E+01,      /* K =  6 */
(PID.TID 0000.0001)                -6.500000000000000E+01,      /* K =  7 */
(PID.TID 0000.0001)                -7.500000000000000E+01,      /* K =  8 */
(PID.TID 0000.0001)                -8.500000000000000E+01,      /* K =  9 */
(PID.TID 0000.0001)                -9.500000000000000E+01,      /* K = 10 */
(PID.TID 0000.0001)                -1.050000000000000E+02,      /* K = 11 */
(PID.TID 0000.0001)                -1.150000000000000E+02,      /* K = 12 */
(PID.TID 0000.0001)                -1.250000000000000E+02,      /* K = 13 */
(PID.TID 0000.0001)                -1.350000000000000E+02,      /* K = 14 */
(PID.TID 0000.0001)                -1.450000000000000E+02,      /* K = 15 */
(PID.TID 0000.0001)                -1.550000000000000E+02,      /* K = 16 */
(PID.TID 0000.0001)                -1.650000000000000E+02,      /* K = 17 */
(PID.TID 0000.0001)                -1.750000000000000E+02,      /* K = 18 */
(PID.TID 0000.0001)                -1.850000000000000E+02,      /* K = 19 */
(PID.TID 0000.0001)                -1.950000000000000E+02       /* K = 20 */
(PID.TID 0000.0001)     ;
(PID.TID 0000.0001) 
(PID.TID 0000.0001)  MDSREADFIELD: opening global file: T.init
(PID.TID 0000.0001) // =======================================================
(PID.TID 0000.0001) // Field Initial Temperature at iteration          1
(PID.TID 0000.0001) // CMIN =          4.841997961264016E-02
(PID.TID 0000.0001) // CMAX =          4.841997961264016E-02
(PID.TID 0000.0001) // CINT =          0.000000000000000E+00
(PID.TID 0000.0001) // SYMBOLS (CMIN->CMAX): -abcdefghijklmnopqrstuvwxyz+
(PID.TID 0000.0001) //                  0.0: .
(PID.TID 0000.0001) // RANGE I (Lo:Hi:Step):(   1:  60:   1)
(PID.TID 0000.0001) // RANGE J (Lo:Hi:Step):(   3:   1:  -1)
(PID.TID 0000.0001) // RANGE K (Lo:Hi:Step):(   1:   1:   1)
(PID.TID 0000.0001) // =======================================================
(PID.TID 0000.0001) K =   1
(PID.TID 0000.0001)                I=10      I=20      I=30      I=40      I=50      I=60
(PID.TID 0000.0001) |--J--|123456789|123456789|123456789|123456789|123456789|123456789|
(PID.TID 0000.0001)      3 ------------------------------------------------------------
(PID.TID 0000.0001)      2 ------------------------------------------------------------
(PID.TID 0000.0001)      1 ------------------------------------------------------------
(PID.TID 0000.0001) // =======================================================
(PID.TID 0000.0001) // END OF FIELD                                          =
(PID.TID 0000.0001) // =======================================================
(PID.TID 0000.0001) 
(PID.TID 0000.0001) // =======================================================
(PID.TID 0000.0001) // Field Initial Salinity at iteration          1
(PID.TID 0000.0001) // CMIN =          3.500000000000000E+01
(PID.TID 0000.0001) // CMAX =          3.500000000000000E+01
(PID.TID 0000.0001) // CINT =          0.000000000000000E+00
(PID.TID 0000.0001) // SYMBOLS (CMIN->CMAX): -abcdefghijklmnopqrstuvwxyz+
(PID.TID 0000.0001) //                  0.0: .
(PID.TID 0000.0001) // RANGE I (Lo:Hi:Step):(   1:  60:   1)
(PID.TID 0000.0001) // RANGE J (Lo:Hi:Step):(   3:   1:  -1)
(PID.TID 0000.0001) // RANGE K (Lo:Hi:Step):(   1:   1:   1)
(PID.TID 0000.0001) // =======================================================
(PID.TID 0000.0001) K =   1
(PID.TID 0000.0001)                I=10      I=20      I=30      I=40      I=50      I=60
(PID.TID 0000.0001) |--J--|123456789|123456789|123456789|123456789|123456789|123456789|
(PID.TID 0000.0001)      3 ------------------------------------------------------------
(PID.TID 0000.0001)      2 ------------------------------------------------------------
(PID.TID 0000.0001)      1 ------------------------------------------------------------
(PID.TID 0000.0001) // =======================================================
(PID.TID 0000.0001) // END OF FIELD                                          =
(PID.TID 0000.0001) // =======================================================
(PID.TID 0000.0001) 
(PID.TID 0000.0001) // =======================================================
(PID.TID 0000.0001) // Model current state
(PID.TID 0000.0001) // =======================================================
(PID.TID 0000.0001) 
(PID.TID 0000.0001) // =======================================================
(PID.TID 0000.0001) // Field Current uVel   at iteration          0
(PID.TID 0000.0001) // CMIN =          1.000000000000000E+32
(PID.TID 0000.0001) // CMAX =         -1.000000000000000E+32
(PID.TID 0000.0001) // CINT =          0.000000000000000E+00
(PID.TID 0000.0001) // SYMBOLS (CMIN->CMAX): -abcdefghijklmnopqrstuvwxyz+
(PID.TID 0000.0001) //                  0.0: .
(PID.TID 0000.0001) // RANGE I (Lo:Hi:Step):(   1:  60:   1)
(PID.TID 0000.0001) // RANGE J (Lo:Hi:Step):(   3:   1:  -1)
(PID.TID 0000.0001) // RANGE K (Lo:Hi:Step):(   1:   1:   1)
(PID.TID 0000.0001) // =======================================================
(PID.TID 0000.0001) K =   1
(PID.TID 0000.0001)                I=10      I=20      I=30      I=40      I=50      I=60
(PID.TID 0000.0001) |--J--|123456789|123456789|123456789|123456789|123456789|123456789|
(PID.TID 0000.0001)      3 ............................................................
(PID.TID 0000.0001)      2 ............................................................
(PID.TID 0000.0001)      1 ............................................................
(PID.TID 0000.0001) // =======================================================
(PID.TID 0000.0001) // END OF FIELD                                          =
(PID.TID 0000.0001) // =======================================================
(PID.TID 0000.0001) 
(PID.TID 0000.0001) // =======================================================
(PID.TID 0000.0001) // Field Current vVel   at iteration          0
(PID.TID 0000.0001) // CMIN =          1.000000000000000E+32
(PID.TID 0000.0001) // CMAX =         -1.000000000000000E+32
(PID.TID 0000.0001) // CINT =          0.000000000000000E+00
(PID.TID 0000.0001) // SYMBOLS (CMIN->CMAX): -abcdefghijklmnopqrstuvwxyz+
(PID.TID 0000.0001) //                  0.0: .
(PID.TID 0000.0001) // RANGE I (Lo:Hi:Step):(   1:  60:   1)
(PID.TID 0000.0001) // RANGE J (Lo:Hi:Step):(   3:   1:  -1)
(PID.TID 0000.0001) // RANGE K (Lo:Hi:Step):(   1:   1:   1)
(PID.TID 0000.0001) // =======================================================
(PID.TID 0000.0001) K =   1
(PID.TID 0000.0001)                I=10      I=20      I=30      I=40      I=50      I cg2d: Sum(rhs) =          -3.00000000000000E+00
 CG2D iters, err =      0          1.73205080756888E+00
 CG2D iters, err =     32          5.05074417268826E-14
 cg2d: Sum(rhs) =          -4.48717539791588E-08
 CG2D iters, err =      0          3.46105596411798E+00
 CG2D iters, err =     28          2.79897538195501E-14
 cg2d: Sum(rhs) =          -1.24407151247397E-10
 CG2D iters, err =      0          2.45927801172077E+00
 CG2D iters, err =     31          9.58938188755776E-14
 cg2d: Sum(rhs) =          -5.48254219800981E-11
 CG2D iters, err =      0          1.83622868308948E+00
 CG2D iters, err =     31          7.38350507087012E-14
 cg2d: Sum(rhs) =          -3.33220603887519E-11
 CG2D iters, err =      0          1.40979846899173E+00
 CG2D iters, err =     31          5.72821475003455E-14
 cg2d: Sum(rhs) =          -2.76320633041394E-11
 CG2D iters, err =      0          1.14223229011478E+00
 CG2D iters, err =     31          3.85539511141331E-14
 cg2d: Sum(rhs) =          -2.35418594340953E-11
 CG2D iters, err =      0          9.63354818798195E-01
 CG2D iters, err =     31          2.66312467864422E-14
 cg2d: Sum(rhs) =          -2.06900122035059E-11
 CG2D iters, err =      0          8.35076925169913E-01
 CG2D iters, err =     31          2.61780484019167E-14
 cg2d: Sum(rhs) =          -2.19611551166565E-11
 CG2D iters, err =      0          7.38081429618730E-01
 CG2D iters, err =     30          9.16674690793208E-14
 cg2d: Sum(rhs) =          -2.37663812241440E-11
 CG2D iters, err =      0          6.61898527892091E-01
 CG2D iters, err =     30          8.04319035019402E-14
 cg2d: Sum(rhs) =          -1.81968728280024E-11
 CG2D iters, err =      0          6.00343938982291E-01
 CG2D iters, err =     30          7.88079736651969E-14
 cg2d: Sum(rhs) =          -2.34079092914508E-11
 CG2D iters, err =      0          5.49499601971870E-01
 CG2D iters, err =     30          7.55790975203104E-14
 cg2d: Sum(rhs) =          -1.52937324263136E-11
 CG2D iters, err =      0          5.06749880811788E-01
 CG2D iters, err =     30          6.69484657695951E-14
 cg2d: Sum(rhs) =          -1.61816410965132E-11
 CG2D iters, err =      0          4.70276613475161E-01
 CG2D iters, err =     30          5.53827994455921E-14
 cg2d: Sum(rhs) =          -1.65514121505672E-11
 CG2D iters, err =      0          4.38774138425721E-01
 CG2D iters, err =     30          4.73107296465491E-14
 cg2d: Sum(rhs) =          -1.46829050653996E-11
 CG2D iters, err =      0          4.11279090886340E-01
 CG2D iters, err =     30          4.48689780497657E-14
 cg2d: Sum(rhs) =          -1.43971154442646E-11
 CG2D iters, err =      0          3.87064264160730E-01
 CG2D iters, err =     30          4.60044669993636E-14
 cg2d: Sum(rhs) =          -1.61838103682199E-11
 CG2D iters, err =      0          3.65569888145659E-01
 CG2D iters, err =     30          4.82278548842483E-14
 cg2d: Sum(rhs) =          -1.42573461717199E-11
 CG2D iters, err =      0          3.46357718013500E-01
 CG2D iters, err =     30          4.96928495214351E-14
 cg2d: Sum(rhs) =          -1.67811103554683E-11
 CG2D iters, err =      0          3.29079546042538E-01
 CG2D iters, err =     30          4.99360295611139E-14
=60
(PID.TID 0000.0001) |--J--|123456789|123456789|123456789|123456789|123456789|123456789|
(PID.TID 0000.0001)      3 ............................................................
(PID.TID 0000.0001)      2 ............................................................
(PID.TID 0000.0001)      1 ............................................................
(PID.TID 0000.0001) // =======================================================
(PID.TID 0000.0001) // END OF FIELD                                          =
(PID.TID 0000.0001) // =======================================================
(PID.TID 0000.0001) 
(PID.TID 0000.0001) // =======================================================
(PID.TID 0000.0001) // Field Current theta  at iteration          0
(PID.TID 0000.0001) // CMIN =          4.841997961264016E-02
(PID.TID 0000.0001) // CMAX =          4.842000000000000E-02
(PID.TID 0000.0001) // CINT =          7.550874012985643E-10
(PID.TID 0000.0001) // SYMBOLS (CMIN->CMAX): -abcdefghijklmnopqrstuvwxyz+
(PID.TID 0000.0001) //                  0.0: .
(PID.TID 0000.0001) // RANGE I (Lo:Hi:Step):(   1:  60:   1)
(PID.TID 0000.0001) // RANGE J (Lo:Hi:Step):(   3:   1:  -1)
(PID.TID 0000.0001) // RANGE K (Lo:Hi:Step):(   1:   1:   1)
(PID.TID 0000.0001) // =======================================================
(PID.TID 0000.0001) K =   1
(PID.TID 0000.0001)                I=10      I=20      I=30      I=40      I=50      I=60
(PID.TID 0000.0001) |--J--|123456789|123456789|123456789|123456789|123456789|123456789|
(PID.TID 0000.0001)      3 +----------------------------------------------------------+
(PID.TID 0000.0001)      2 +----------------------------------------------------------+
(PID.TID 0000.0001)      1 +----------------------------------------------------------+
(PID.TID 0000.0001) // =======================================================
(PID.TID 0000.0001) // END OF FIELD                                          =
(PID.TID 0000.0001) // =======================================================
(PID.TID 0000.0001) 
(PID.TID 0000.0001) // =======================================================
(PID.TID 0000.0001) // Field Current cg2d_x  at iteration          0
(PID.TID 0000.0001) // CMIN =          1.000000000000000E+32
(PID.TID 0000.0001) // CMAX =         -1.000000000000000E+32
(PID.TID 0000.0001) // CINT =          0.000000000000000E+00
(PID.TID 0000.0001) // SYMBOLS (CMIN->CMAX): -abcdefghijklmnopqrstuvwxyz+
(PID.TID 0000.0001) //                  0.0: .
(PID.TID 0000.0001) // RANGE I (Lo:Hi:Step):(  -2:  63:   1)
(PID.TID 0000.0001) // RANGE J (Lo:Hi:Step):(   6:  -2:  -1)
(PID.TID 0000.0001) // RANGE K (Lo:Hi:Step):(   1:   1:   1)
(PID.TID 0000.0001) // =======================================================
(PID.TID 0000.0001) K =   1
(PID.TID 0000.0001)                I=7       I=17      I=27      I=37      I=47      I=57
(PID.TID 0000.0001) |--J--|**0123456|890123456|890123456|890123456|890123456|890123456|890123
(PID.TID 0000.0001)      6 ..................................................................
(PID.TID 0000.0001)      5 ..................................................................
(PID.TID 0000.0001)      4 ..................................................................
(PID.TID 0000.0001)      3 ..................................................................
(PID.TID 0000.0001)      2 ..................................................................
(PID.TID 0000.0001)      1 ..................................................................
(PID.TID 0000.0001)      0 ..................................................................
(PID.TID 0000.0001)     -1 ..................................................................
(PID.TID 0000.0001)     -2 ..................................................................
(PID.TID 0000.0001) // =======================================================
(PID.TID 0000.0001) // END OF FIELD                                          =
(PID.TID 0000.0001) // =======================================================
(PID.TID 0000.0001) 
(PID.TID 0000.0001)   Seconds in section "ALL                [THE_MODEL_MAIN]":
(PID.TID 0000.0001)           User time:  1.27999997
(PID.TID 0000.0001)         System time:  0.0500000007
(PID.TID 0000.0001)     Wall clock time:  1.32916296
(PID.TID 0000.0001)          No. starts: 1
(PID.TID 0000.0001)           No. stops: 1
(PID.TID 0000.0001)   Seconds in section "INITIALISE_FIXED   [THE_MODEL_MAIN]":
(PID.TID 0000.0001)           User time:  0.0399999991
(PID.TID 0000.0001)         System time:  0.0199999996
(PID.TID 0000.0001)     Wall clock time:  0.0538920164
(PID.TID 0000.0001)          No. starts: 1
(PID.TID 0000.0001)           No. stops: 1
(PID.TID 0000.0001)   Seconds in section "THE_MAIN_LOOP      [THE_MODEL_MAIN]":
(PID.TID 0000.0001)           User time:  1.23999997
(PID.TID 0000.0001)         System time:  0.0300000012
(PID.TID 0000.0001)     Wall clock time:  1.27509594
(PID.TID 0000.0001)          No. starts: 1
(PID.TID 0000.0001)           No. stops: 1
(PID.TID 0000.0001)   Seconds in section "SPIN-UP            [THE_MAIN_LOOP]":
(PID.TID 0000.0001)           User time:  0.0199999996
(PID.TID 0000.0001)         System time:  0.
(PID.TID 0000.0001)     Wall clock time:  0.0286210775
(PID.TID 0000.0001)          No. starts: 1
(PID.TID 0000.0001)           No. stops: 1
(PID.TID 0000.0001)   Seconds in section "INITIALISE_VARIA   [THE_MAIN_LOOP]":
(PID.TID 0000.0001)           User time:  0.0100000016
(PID.TID 0000.0001)         System time:  0.
(PID.TID 0000.0001)     Wall clock time:  0.0185500383
(PID.TID 0000.0001)          No. starts: 1
(PID.TID 0000.0001)           No. stops: 1
(PID.TID 0000.0001)   Seconds in section "I/O (WRITE)        [THE_MAIN_LOOP]":
(PID.TID 0000.0001)           User time:  0.0199999884
(PID.TID 0000.0001)         System time:  0.00999999978
(PID.TID 0000.0001)     Wall clock time:  0.0336911678
(PID.TID 0000.0001)          No. starts: 2
(PID.TID 0000.0001)           No. stops: 2
(PID.TID 0000.0001)   Seconds in section "MAIN LOOP          [THE_MAIN_LOOP]":
(PID.TID 0000.0001)           User time:  1.15000004
(PID.TID 0000.0001)         System time:  0.00999999978
(PID.TID 0000.0001)     Wall clock time:  1.15377295
(PID.TID 0000.0001)          No. starts: 1
(PID.TID 0000.0001)           No. stops: 1
(PID.TID 0000.0001)   Seconds in section "FORWARD_STEP       [THE_MAIN_LOOP]":
(PID.TID 0000.0001)           User time:  1.20999998
(PID.TID 0000.0001)         System time:  0.0200000014
(PID.TID 0000.0001)     Wall clock time:  1.22111285
(PID.TID 0000.0001)          No. starts: 21
(PID.TID 0000.0001)           No. stops: 21
(PID.TID 0000.0001)   Seconds in section "I/O (READ)         [FORWARD_STEP]":
(PID.TID 0000.0001)           User time:  0.
(PID.TID 0000.0001)         System time:  0.
(PID.TID 0000.0001)     Wall clock time:  0.00118720531
(PID.TID 0000.0001)          No. starts: 21
(PID.TID 0000.0001)           No. stops: 21
(PID.TID 0000.0001)   Seconds in section "DYNAMICS           [FORWARD_STEP]":
(PID.TID 0000.0001)           User time:  1.07000009
(PID.TID 0000.0001)         System time:  0.00999999978
(PID.TID 0000.0001)     Wall clock time:  1.08375823
(PID.TID 0000.0001)          No. starts: 21
(PID.TID 0000.0001)           No. stops: 21
(PID.TID 0000.0001)   Seconds in section "I/O (WRITE)        [FORWARD_STEP]":
(PID.TID 0000.0001)           User time:  0.00999999046
(PID.TID 0000.0001)         System time:  0.0100000016
(PID.TID 0000.0001)     Wall clock time:  0.0173826218
(PID.TID 0000.0001)          No. starts: 41
(PID.TID 0000.0001)           No. stops: 41
(PID.TID 0000.0001)   Seconds in section "SOLVE_FOR_PRESSURE [FORWARD_STEP]":
(PID.TID 0000.0001)           User time:  0.0799999312
(PID.TID 0000.0001)         System time:  0.
(PID.TID 0000.0001)     Wall clock time:  0.0730810165
(PID.TID 0000.0001)          No. starts: 20
(PID.TID 0000.0001)           No. stops: 20
(PID.TID 0000.0001)   Seconds in section "BLOCKING_EXCHANGES [FORWARD_STEP]":
(PID.TID 0000.0001)           User time:  0.0499999672
(PID.TID 0000.0001)         System time:  0.
(PID.TID 0000.0001)     WSTOP NORMAL END statement executed
all clock time:  0.0374691486
(PID.TID 0000.0001)          No. starts: 20
(PID.TID 0000.0001)           No. stops: 20
(PID.TID 0000.0001)   Seconds in section "SPIN-DOWN          [THE_MAIN_LOOP]":
(PID.TID 0000.0001)           User time:  0.0699999332
(PID.TID 0000.0001)         System time:  0.0200000014
(PID.TID 0000.0001)     Wall clock time:  0.0924710035
(PID.TID 0000.0001)          No. starts: 1
(PID.TID 0000.0001)           No. stops: 1
(PID.TID 0000.0001) // ======================================================
(PID.TID 0000.0001) // Tile <-> Tile communication statistics
(PID.TID 0000.0001) // ======================================================
(PID.TID 0000.0001) // o Tile number: 000001
(PID.TID 0000.0001) //         No. X exchanges =           1444
(PID.TID 0000.0001) //            Max. X spins =              1
(PID.TID 0000.0001) //            Min. X spins =              1
(PID.TID 0000.0001) //          Total. X spins =           1444
(PID.TID 0000.0001) //            Avg. X spins =       1.00E+00
(PID.TID 0000.0001) //         No. Y exchanges =           1444
(PID.TID 0000.0001) //            Max. Y spins =              1
(PID.TID 0000.0001) //            Min. Y spins =              1
(PID.TID 0000.0001) //          Total. Y spins =           1444
(PID.TID 0000.0001) //            Avg. Y spins =       1.00E+00
(PID.TID 0000.0001) // o Thread number: 000001
(PID.TID 0000.0001) //            No. barriers =              0
(PID.TID 0000.0001) //      Max. barrier spins =              0
(PID.TID 0000.0001) //      Min. barrier spins =     1000000000
(PID.TID 0000.0001) //     Total barrier spins =              0
(PID.TID 0000.0001) //      Avg. barrier spins =       0.00E+00
