(PID.TID 0000.0001) 
(PID.TID 0000.0001) // ======================================================
(PID.TID 0000.0001) //                      MITgcm UV
(PID.TID 0000.0001) //                      =========
(PID.TID 0000.0001) // ======================================================
(PID.TID 0000.0001) // execution environment starting up...
(PID.TID 0000.0001) // Run starting Wed Apr  1 14:19:48 1998
(PID.TID 0000.0001) // on melville.lcs.mit.edu
(PID.TID 0000.0001) // account cnh
(PID.TID 0000.0001) // MITgcm UV Release: $Name:  $
(PID.TID 0000.0001) 
(PID.TID 0000.0001) // =======================================================
(PID.TID 0000.0001) // Execution Environment parameter file "eedata"
(PID.TID 0000.0001) // =======================================================
(PID.TID 0000.0001) ># Example "eedata" file
(PID.TID 0000.0001) ># Lines beginning "#" are comments
(PID.TID 0000.0001) ># nTx - No. threads per process in X
(PID.TID 0000.0001) ># nTy - No. threads per process in Y
(PID.TID 0000.0001) > &EEPARMS
(PID.TID 0000.0001) > &
(PID.TID 0000.0001) ># Note: Some systems use & as the
(PID.TID 0000.0001) ># namelist terminator. Other systems
(PID.TID 0000.0001) ># use a / character (as shown here).
(PID.TID 0000.0001) 
(PID.TID 0000.0001) // =======================================================
(PID.TID 0000.0001) // Computational Grid Specification ( see files "SIZE.h" )
(PID.TID 0000.0001) //                                  ( and "eedata"       )
(PID.TID 0000.0001) // =======================================================
(PID.TID 0000.0001)      nPx =    1 ; /* No. processes in X */
(PID.TID 0000.0001)      nPy =    1 ; /* No. processes in Y */
(PID.TID 0000.0001)      nSx =    2 ; /* No. tiles in X per process */
(PID.TID 0000.0001)      nSy =    1 ; /* No. tiles in Y per process */
(PID.TID 0000.0001)      sNx =   30 ; /* Tile size in X */
(PID.TID 0000.0001)      sNy =    1 ; /* Tile size in Y */
(PID.TID 0000.0001)      OLx =    3 ; /* Tile overlap distance in X */
(PID.TID 0000.0001)      OLy =    3 ; /* Tile overlap distance in Y */
(PID.TID 0000.0001)      nTx =    1 ; /* No. threads in X per process */
(PID.TID 0000.0001)      nTy =    1 ; /* No. threads in Y per process */
(PID.TID 0000.0001)       Nr =   20 ; /* No. levels in the vertical   */
(PID.TID 0000.0001)       nX =   60 ; /* Total domain size in X ( = nPx*nSx*sNx ) */
(PID.TID 0000.0001)       nY =    1 ; /* Total domain size in Y ( = nPy*nSy*sNy ) */
(PID.TID 0000.0001)   nTiles =    2 ; /* Total no. tiles per process ( = nSx*nSy ) */
(PID.TID 0000.0001)   nProcs =    1 ; /* Total no. processes ( = nPx*nPy ) */
(PID.TID 0000.0001) nThreads =    1 ; /* Total no. threads per process ( = nTx*nTy ) */
(PID.TID 0000.0001) usingMPI =    F ; /* Flag used to control whether MPI is in use */
(PID.TID 0000.0001)                   /*  note: To execute a program with MPI calls */
(PID.TID 0000.0001)                   /*  it must be launched appropriately e.g     */
(PID.TID 0000.0001)                   /*  "mpirun -np 64 ......"                    */
(PID.TID 0000.0001) useCoupler=   F ; /* Flag used to control communications with */
(PID.TID 0000.0001)                   /*  other model components, through a coupler */
(PID.TID 0000.0001) 
(PID.TID 0000.0001) // ======================================================
(PID.TID 0000.0001) // Mapping of tiles to threads
(PID.TID 0000.0001) // ======================================================
(PID.TID 0000.0001) // -o- Thread   1, tiles (   1:   2,   1:   1)
(PID.TID 0000.0001) 
(PID.TID 0000.0001) // ======================================================
(PID.TID 0000.0001) // Tile <-> Tile connectvity table
(PID.TID 0000.0001) // ======================================================
(PID.TID 0000.0001) // Tile number: 000001 (process no. = 000001)
(PID.TID 0000.0001) //        WEST: Tile = 000002, Process = 000001, Comm = put
(PID.TID 0000.0001) //                bi = 000002, bj = 000001
(PID.TID 0000.0001) //        EAST: Tile = 000002, Process = 000001, Comm = put
(PID.TID 0000.0001) //                bi = 000002, bj = 000001
(PID.TID 0000.0001) //       SOUTH: Tile = 000001, Process = 000001, Comm = put
(PID.TID 0000.0001) //                bi = 000001, bj = 000001
(PID.TID 0000.0001) //       NORTH: Tile = 000001, Process = 000001, Comm = put
(PID.TID 0000.0001) //                bi = 000001, bj = 000001
(PID.TID 0000.0001) // Tile number: 000002 (process no. = 000001)
(PID.TID 0000.0001) //        WEST: Tile = 000001, Process = 000001, Comm = put
(PID.TID 0000.0001) //                bi = 000001, bj = 000001
(PID.TID 0000.0001) //        EAST: Tile = 000001, Process = 000001, Comm = put
(PID.TID 0000.0001) //                bi = 000001, bj = 000001
(PID.TID 0000.0001) //       SOUTH: Tile = 000002, Process = 000001, Comm = put
(PID.TID 0000.0001) //                bi = 000002, bj = 000001
(PID.TID 0000.0001) //       NORTH: Tile = 000002, Process = 000001, Comm = put
(PID.TID 0000.0001) //                bi = 000002, bj = 000001
(PID.TID 0000.0001) 
(PID.TID 0000.0001) // =======================================================
(PID.TID 0000.0001) // Model parameter file "data"
(PID.TID 0000.0001) // =======================================================
(PID.TID 0000.0001) ># ====================
(PID.TID 0000.0001) ># | Model parameters |
(PID.TID 0000.0001) ># ====================
(PID.TID 0000.0001) >#
(PID.TID 0000.0001) ># Continuous equation parameters
(PID.TID 0000.0001) > &PARM01
(PID.TID 0000.0001) > Tref = 0.04842, 0.0433231, 0.0382263, 0.0331295,
(PID.TID 0000.0001) >        0.0280326, 0.0229358, 0.0178389, 0.0127421,
(PID.TID 0000.0001) >        0.00764526, 0.00254842, -0.00254842, -0.00764526,
(PID.TID 0000.0001) >       -0.0127421, -0.0178389, -0.0229358, -0.0280326,
(PID.TID 0000.0001) >       -0.0331295, -0.0382263, -0.0433231, -0.04842,
(PID.TID 0000.0001) > sRef= 20*35.,
(PID.TID 0000.0001) > viscAz=1.E-3,
(PID.TID 0000.0001) > viscAh=1.0E-2,
(PID.TID 0000.0001) > no_slip_sides=.FALSE.,
(PID.TID 0000.0001) > no_slip_bottom=.FALSE.,
(PID.TID 0000.0001) > viscA4=0.E12,
(PID.TID 0000.0001) > diffKhT=1.0E-2
(PID.TID 0000.0001) > diffKzT=1.E-3,
(PID.TID 0000.0001) > diffKhS=1.E3,
(PID.TID 0000.0001) > diffKzS=1.E-5,
(PID.TID 0000.0001) > f0=0.0,
(PID.TID 0000.0001) > beta=0.E-11,
(PID.TID 0000.0001) > tAlpha=2.E-4,
(PID.TID 0000.0001) > sBeta =0.E-4,
(PID.TID 0000.0001) > gravity=9.81,
(PID.TID 0000.0001) > gBaro=9.81,
(PID.TID 0000.0001) > rigidLid=.FALSE.,
(PID.TID 0000.0001) > implicitFreeSurface=.TRUE.,
(PID.TID 0000.0001) > eosType='LINEAR',
(PID.TID 0000.0001) > nonHydrostatic=.FALSE.,
(PID.TID 0000.0001) > readBinaryPrec=64,
(PID.TID 0000.0001) > globalFiles=.TRUE.,
(PID.TID 0000.0001) > writeBinaryPrec=64,
(PID.TID 0000.0001) > writeStatePrec=64,
(PID.TID 0000.0001) > saltStepping=.FALSE.,
(PID.TID 0000.0001) > hFacMin=0.2,
(PID.TID 0000.0001) > implicSurfPress=0.5,
(PID.TID 0000.0001) > implicDiv2DFlow=0.5,
(PID.TID 0000.0001) > nonlinFreeSurf=3,
(PID.TID 0000.0001) > hFacInf=0.2,
(PID.TID 0000.0001) > hFacSup=1.8,
(PID.TID 0000.0001) > exactConserv=.TRUE.
(PID.TID 0000.0001) > &
(PID.TID 0000.0001) >
(PID.TID 0000.0001) ># Elliptic solver parameters
(PID.TID 0000.0001) > &PARM02
(PID.TID 0000.0001) > cg2dMaxIters=1000,
(PID.TID 0000.0001) > cg2dTargetResidual=1.E-13,
(PID.TID 0000.0001) > cg3dMaxIters=400,
(PID.TID 0000.0001) > cg3dTargetResidual=1.E-13,
(PID.TID 0000.0001) > &
(PID.TID 0000.0001) >
(PID.TID 0000.0001) ># Time stepping parameters
(PID.TID 0000.0001) > &PARM03
(PID.TID 0000.0001) > niter0=0,
(PID.TID 0000.0001) > nTimeSteps=100,
(PID.TID 0000.0001) > deltaT=500.,
(PID.TID 0000.0001) > abEps=0.1,
(PID.TID 0000.0001) > pChkptFreq=0.0,
(PID.TID 0000.0001) > chkptFreq=0.0,
(PID.TID 0000.0001) > dumpFreq=50000.,
(PID.TID 0000.0001) > monitorFreq=2500.,
(PID.TID 0000.0001) > &
(PID.TID 0000.0001) >
(PID.TID 0000.0001) ># Gridding parameters
(PID.TID 0000.0001) > &PARM04
(PID.TID 0000.0001) > usingCartesianGrid=.TRUE.,
(PID.TID 0000.0001) > usingSphericalPolarGrid=.FALSE.,
(PID.TID 0000.0001) > delXfile='delXvar'
(PID.TID 0000.0001) > delY=5.e3,
(PID.TID 0000.0001) > delZ=20*10.000000,
(PID.TID 0000.0001) > &
(PID.TID 0000.0001) >
(PID.TID 0000.0001) ># Input datasets
(PID.TID 0000.0001) > &PARM05
(PID.TID 0000.0001) > hydrogThetaFile='T.init',
(PID.TID 0000.0001) > bathyFile='topog.slope',
(PID.TID 0000.0001) > &
(PID.TID 0000.0001) 
(PID.TID 0000.0001) S/R INI_PARMS ; read PARM01 : OK
(PID.TID 0000.0001) S/R INI_PARMS ; read PARM02 : OK
(PID.TID 0000.0001) S/R INI_PARMS ; read PARM03 : OK
(PID.TID 0000.0001) S/R INI_PARMS ; read PARM04 : OK
(PID.TID 0000.0001) S/R INI_PARMS ; read PARM05 : OK
(PID.TID 0000.0001) %MON XC_max                       =   1.2972950819672E+04
(PID.TID 0000.0001) %MON XC_min                       =   1.0901639344262E+02
(PID.TID 0000.0001) %MON XC_mean                      =   6.5409836065574E+03
(PID.TID 0000.0001) %MON XC_sd                        =   3.7759141042143E+03
(PID.TID 0000.0001) %MON XG_max                       =   1.2863934426229E+04
(PID.TID 0000.0001) %MON XG_min                       =   5.6843418860808E-14
(PID.TID 0000.0001) %MON XG_mean                      =   6.4319672131147E+03
(PID.TID 0000.0001) %MON XG_sd                        =   3.7759141042143E+03
(PID.TID 0000.0001) %MON DXC_max                      =   2.1803278688525E+02
(PID.TID 0000.0001) %MON DXC_min                      =   2.1803278688525E+02
(PID.TID 0000.0001) %MON DXC_mean                     =   2.1803278688525E+02
(PID.TID 0000.0001) %MON DXC_sd                       =   1.4210854715202E-13
(PID.TID 0000.0001) %MON DXF_max                      =   2.1803278688525E+02
(PID.TID 0000.0001) %MON DXF_min                      =   2.1803278688525E+02
(PID.TID 0000.0001) %MON DXF_mean                     =   2.1803278688525E+02
(PID.TID 0000.0001) %MON DXF_sd                       =   1.4210854715202E-13
(PID.TID 0000.0001) %MON DXG_max                      =   2.1803278688525E+02
(PID.TID 0000.0001) %MON DXG_min                      =   2.1803278688525E+02
(PID.TID 0000.0001) %MON DXG_mean                     =   2.1803278688525E+02
(PID.TID 0000.0001) %MON DXG_sd                       =   1.4210854715202E-13
(PID.TID 0000.0001) %MON DXV_max                      =   2.1803278688525E+02
(PID.TID 0000.0001) %MON DXV_min                      =   2.1803278688525E+02
(PID.TID 0000.0001) %MON DXV_mean                     =   2.1803278688525E+02
(PID.TID 0000.0001) %MON DXV_sd                       =   1.4210854715202E-13
(PID.TID 0000.0001) %MON YC_max                       =   2.5000000000000E+03
(PID.TID 0000.0001) %MON YC_min                       =   2.5000000000000E+03
(PID.TID 0000.0001) %MON YC_mean                      =   2.5000000000000E+03
(PID.TID 0000.0001) %MON YC_sd                        =   0.0000000000000E+00
(PID.TID 0000.0001) %MON YG_max                       =   0.0000000000000E+00
(PID.TID 0000.0001) %MON YG_min                       =   0.0000000000000E+00
(PID.TID 0000.0001) %MON YG_mean                      =   0.0000000000000E+00
(PID.TID 0000.0001) %MON YG_sd                        =   0.0000000000000E+00
(PID.TID 0000.0001) %MON DYC_max                      =   5.0000000000000E+03
(PID.TID 0000.0001) %MON DYC_min                      =   5.0000000000000E+03
(PID.TID 0000.0001) %MON DYC_mean                     =   5.0000000000000E+03
(PID.TID 0000.0001) %MON DYC_sd                       =   0.0000000000000E+00
(PID.TID 0000.0001) %MON DYF_max                      =   5.0000000000000E+03
(PID.TID 0000.0001) %MON DYF_min                      =   5.0000000000000E+03
(PID.TID 0000.0001) %MON DYF_mean                     =   5.0000000000000E+03
(PID.TID 0000.0001) %MON DYF_sd                       =   0.0000000000000E+00
(PID.TID 0000.0001) %MON DYG_max                      =   5.0000000000000E+03
(PID.TID 0000.0001) %MON DYG_min                      =   5.0000000000000E+03
(PID.TID 0000.0001) %MON DYG_mean                     =   5.0000000000000E+03
(PID.TID 0000.0001) %MON DYG_sd                       =   0.0000000000000E+00
(PID.TID 0000.0001) %MON DYU_max                      =   5.0000000000000E+03
(PID.TID 0000.0001) %MON DYU_min                      =   5.0000000000000E+03
(PID.TID 0000.0001) %MON DYU_mean                     =   5.0000000000000E+03
(PID.TID 0000.0001) %MON DYU_sd                       =   0.0000000000000E+00
(PID.TID 0000.0001) %MON RA_max                       =   1.0901639344262E+06
(PID.TID 0000.0001) %MON RA_min                       =   1.0901639344262E+06
(PID.TID 0000.0001) %MON RA_mean                      =   1.0901639344262E+06
(PID.TID 0000.0001) %MON RA_sd                        =   0.0000000000000E+00
(PID.TID 0000.0001) %MON RAW_max                      =   1.0901639344262E+06
(PID.TID 0000.0001) %MON RAW_min                      =   1.0901639344262E+06
(PID.TID 0000.0001) %MON RAW_mean                     =   1.0901639344262E+06
(PID.TID 0000.0001) %MON RAW_sd                       =   0.0000000000000E+00
(PID.TID 0000.0001) %MON RAS_max                      =   1.0901639344262E+06
(PID.TID 0000.0001) %MON RAS_min                      =   1.0901639344262E+06
(PID.TID 0000.0001) %MON RAS_mean                     =   1.0901639344262E+06
(PID.TID 0000.0001) %MON RAS_sd                       =   0.0000000000000E+00
(PID.TID 0000.0001) %MON RAZ_max                      =   1.0901639344262E+06
(PID.TID 0000.0001) %MON RAZ_min                      =   1.0901639344262E+06
(PID.TID 0000.0001) %MON RAZ_mean                     =   1.0901639344262E+06
(PID.TID 0000.0001) %MON RAZ_sd                       =   0.0000000000000E+00
(PID.TID 0000.0001)  MDSREADFIELD: opening global file: topog.slope
(PID.TID 0000.0001) // =======================================================
(PID.TID 0000.0001) // Field Model R_low (ini_masks_etc) at iteration          1
(PID.TID 0000.0001) // CMIN =         -2.000000000000000E+02
(PID.TID 0000.0001) // CMAX =         -4.000000000000000E+01
(PID.TID 0000.0001) // CINT =          5.925925925925926E+00
(PID.TID 0000.0001) // SYMBOLS (CMIN->CMAX): -abcdefghijklmnopqrstuvwxyz+
(PID.TID 0000.0001) //                  0.0: .
(PID.TID 0000.0001) // RANGE I (Lo:Hi:Step):(  -2:  63:   1)
(PID.TID 0000.0001) // RANGE J (Lo:Hi:Step):(   4:  -2:  -1)
(PID.TID 0000.0001) // RANGE K (Lo:Hi:Step):(   1:   1:   1)
(PID.TID 0000.0001) // =======================================================
(PID.TID 0000.0001) K =   1
(PID.TID 0000.0001) //                I=7       I=17      I=27      I=31      I=41      I=51      I=61
(PID.TID 0000.0001) // |--J--|**0123456|890123456|890123456|890123890|234567890|234567890|234567890|23
(PID.TID 0000.0001) //      4 ++.-----------abcdefghikkmnopqrstvwxrstvwxyz++++++++++++++++++++++++.---
(PID.TID 0000.0001) //      3 ++.-----------abcdefghikkmnopqrstvwxrstvwxyz++++++++++++++++++++++++.---
(PID.TID 0000.0001) //      2 ++.-----------abcdefghikkmnopqrstvwxrstvwxyz++++++++++++++++++++++++.---
(PID.TID 0000.0001) //      1 ++.-----------abcdefghikkmnopqrstvwxrstvwxyz++++++++++++++++++++++++.---
(PID.TID 0000.0001) //      0 ++.-----------abcdefghikkmnopqrstvwxrstvwxyz++++++++++++++++++++++++.---
(PID.TID 0000.0001) //     -1 ++.-----------abcdefghikkmnopqrstvwxrstvwxyz++++++++++++++++++++++++.---
(PID.TID 0000.0001) //     -2 ++.-----------abcdefghikkmnopqrstvwxrstvwxyz++++++++++++++++++++++++.---
(PID.TID 0000.0001) // =======================================================
(PID.TID 0000.0001) // END OF FIELD                                          =
(PID.TID 0000.0001) // =======================================================
(PID.TID 0000.0001) 
(PID.TID 0000.0001) // =======================================================
(PID.TID 0000.0001) // Field Model Ro_surf (ini_masks_etc) at iteration          1
(PID.TID 0000.0001) // CMIN =          1.000000000000000E+32
(PID.TID 0000.0001) // CMAX =         -1.000000000000000E+32
(PID.TID 0000.0001) // CINT =          0.000000000000000E+00
(PID.TID 0000.0001) // SYMBOLS (CMIN->CMAX): -abcdefghijklmnopqrstuvwxyz+
(PID.TID 0000.0001) //                  0.0: .
(PID.TID 0000.0001) // RANGE I (Lo:Hi:Step):(  -2:  63:   1)
(PID.TID 0000.0001) // RANGE J (Lo:Hi:Step):(   4:  -2:  -1)
(PID.TID 0000.0001) // RANGE K (Lo:Hi:Step):(   1:   1:   1)
(PID.TID 0000.0001) // =======================================================
(PID.TID 0000.0001) // =======================================================
(PID.TID 0000.0001) // END OF FIELD                                          =
(PID.TID 0000.0001) // =======================================================
(PID.TID 0000.0001) 
(PID.TID 0000.0001) // =======================================================
(PID.TID 0000.0001) // Field hFacC at iteration          1
(PID.TID 0000.0001) // CMIN =          1.000000000000000E+00
(PID.TID 0000.0001) // CMAX =          1.000000000000000E+00
(PID.TID 0000.0001) // CINT =          0.000000000000000E+00
(PID.TID 0000.0001) // SYMBOLS (CMIN->CMAX): -abcdefghijklmnopqrstuvwxyz+
(PID.TID 0000.0001) //                  0.0: .
(PID.TID 0000.0001) // RANGE I (Lo:Hi:Step):(  -2:  63:   1)
(PID.TID 0000.0001) // RANGE J (Lo:Hi:Step):(   4:  -2:  -1)
(PID.TID 0000.0001) // RANGE K (Lo:Hi:Step):(   1:   1:   1)
(PID.TID 0000.0001) // =======================================================
(PID.TID 0000.0001) // =======================================================
(PID.TID 0000.0001) // END OF FIELD                                          =
(PID.TID 0000.0001) // =======================================================
(PID.TID 0000.0001) 
(PID.TID 0000.0001) // =======================================================
(PID.TID 0000.0001) // Field hFacW at iteration          1
(PID.TID 0000.0001) // CMIN =          1.000000000000000E+00
(PID.TID 0000.0001) // CMAX =          1.000000000000000E+00
(PID.TID 0000.0001) // CINT =          0.000000000000000E+00
(PID.TID 0000.0001) // SYMBOLS (CMIN->CMAX): -abcdefghijklmnopqrstuvwxyz+
(PID.TID 0000.0001) //                  0.0: .
(PID.TID 0000.0001) // RANGE I (Lo:Hi:Step):(  -2:  63:   1)
(PID.TID 0000.0001) // RANGE J (Lo:Hi:Step):(   4:  -2:  -1)
(PID.TID 0000.0001) // RANGE K (Lo:Hi:Step):(   1:   1:   1)
(PID.TID 0000.0001) // =======================================================
(PID.TID 0000.0001) // =======================================================
(PID.TID 0000.0001) // END OF FIELD                                          =
(PID.TID 0000.0001) // =======================================================
(PID.TID 0000.0001) 
(PID.TID 0000.0001) // =======================================================
(PID.TID 0000.0001) // Field hFacS at iteration          1
(PID.TID 0000.0001) // CMIN =          1.000000000000000E+00
(PID.TID 0000.0001) // CMAX =          1.000000000000000E+00
(PID.TID 0000.0001) // CINT =          0.000000000000000E+00
(PID.TID 0000.0001) // SYMBOLS (CMIN->CMAX): -abcdefghijklmnopqrstuvwxyz+
(PID.TID 0000.0001) //                  0.0: .
(PID.TID 0000.0001) // RANGE I (Lo:Hi:Step):(  -2:  63:   1)
(PID.TID 0000.0001) // RANGE J (Lo:Hi:Step):(   4:  -2:  -1)
(PID.TID 0000.0001) // RANGE K (Lo:Hi:Step):(   1:   1:   1)
(PID.TID 0000.0001) // =======================================================
(PID.TID 0000.0001) // =======================================================
(PID.TID 0000.0001) // END OF FIELD                                          =
(PID.TID 0000.0001) // =======================================================
(PID.TID 0000.0001) 
(PID.TID 0000.0001)  PACKAGES_BOOT: opening data.pkg
(PID.TID 0000.0001)  OPEN_COPY_DATA_FILE: opening file data.pkg
(PID.TID 0000.0001) // =======================================================
(PID.TID 0000.0001) // Parameter file "data.pkg"
(PID.TID 0000.0001) // =======================================================
(PID.TID 0000.0001) ># Packages
(PID.TID 0000.0001) > &PACKAGES
(PID.TID 0000.0001) > useOBCS=.TRUE.,
(PID.TID 0000.0001) > &
(PID.TID 0000.0001) 
(PID.TID 0000.0001)  PACKAGES_BOOT: finished reading data.pkg
(PID.TID 0000.0001)  OBCS_READPARMS: opening data.obcs
(PID.TID 0000.0001)  OPEN_COPY_DATA_FILE: opening file data.obcs
(PID.TID 0000.0001) // =======================================================
(PID.TID 0000.0001) // Parameter file "data.obcs"
(PID.TID 0000.0001) // =======================================================
(PID.TID 0000.0001) ># Open-boundaries
(PID.TID 0000.0001) > &OBCS_PARM01
(PID.TID 0000.0001) > OB_Ieast=-1,
(PID.TID 0000.0001) > OB_Iwest=1,
(PID.TID 0000.0001) > &
(PID.TID 0000.0001) >
(PID.TID 0000.0001) 
 OB Jn = 0 0 0 0 0 0 0 0 0 0 0 0 0 0 0 0 0 0 0 0 0 0 0 0 0 0 0 0 0 0 0 0 0 0 0 0
 0 0 0 0 0 0 0 0 0 0 0 0 0 0 0 0 0 0 0 0 0 0 0 0
 OB Js = 0 0 0 0 0 0 0 0 0 0 0 0 0 0 0 0 0 0 0 0 0 0 0 0 0 0 0 0 0 0 0 0 0 0 0 0
 0 0 0 0 0 0 0 0 0 0 0 0 0 0 0 0 0 0 0 0 0 0 0 0
 OB Ie = 60
 OB Iw = 1
(PID.TID 0000.0001)  OBCS_READPARMS: finished reading data.obcs
(PID.TID 0000.0001) 
(PID.TID 0000.0001) // ===================================
(PID.TID 0000.0001) // GAD parameters :
(PID.TID 0000.0001) // ===================================
(PID.TID 0000.0001) tempAdvScheme =   /* Temp. advection scheme selector */
(PID.TID 0000.0001)                       2
(PID.TID 0000.0001)     ;
(PID.TID 0000.0001) tempMultiDimAdvec =   /* use Muti-Dim Advec method for Temp */
(PID.TID 0000.0001)                   F
(PID.TID 0000.0001)     ;
(PID.TID 0000.0001) tempAdamsBashforth =   /* use Adams-Bashforth time-stepping for Temp */
(PID.TID 0000.0001)                   T
(PID.TID 0000.0001)     ;
(PID.TID 0000.0001) saltAdvScheme =   /* Salt. advection scheme selector */
(PID.TID 0000.0001)                       2
(PID.TID 0000.0001)     ;
(PID.TID 0000.0001) saltMultiDimAdvec =   /* use Muti-Dim Advec method for Salt */
(PID.TID 0000.0001)                   F
(PID.TID 0000.0001)     ;
(PID.TID 0000.0001) saltAdamsBashforth =   /* use Adams-Bashforth time-stepping for Salt */
(PID.TID 0000.0001)                   T
(PID.TID 0000.0001)     ;
(PID.TID 0000.0001) // ===================================
(PID.TID 0000.0001) OBCS_CHECK: #define ALLOW_OBCS
(PID.TID 0000.0001) OBCS_CHECK: #define ALLOW_ORLANSKI
(PID.TID 0000.0001) OBCS_CHECK: OK
(PID.TID 0000.0001) %MON fCori_max                    =   0.0000000000000E+00
(PID.TID 0000.0001) %MON fCori_min                    =   0.0000000000000E+00
(PID.TID 0000.0001) %MON fCori_mean                   =   0.0000000000000E+00
(PID.TID 0000.0001) %MON fCori_sd                     =   0.0000000000000E+00
(PID.TID 0000.0001) %MON fCoriG_max                   =   0.0000000000000E+00
(PID.TID 0000.0001) %MON fCoriG_min                   =   0.0000000000000E+00
(PID.TID 0000.0001) %MON fCoriG_mean                  =   0.0000000000000E+00
(PID.TID 0000.0001) %MON fCoriG_sd                    =   0.0000000000000E+00
(PID.TID 0000.0001) %MON fCoriCos_max                 =   0.0000000000000E+00
(PID.TID 0000.0001) %MON fCoriCos_min                 =   0.0000000000000E+00
(PID.TID 0000.0001) %MON fCoriCos_mean                =   0.0000000000000E+00
(PID.TID 0000.0001) %MON fCoriCos_sd                  =   0.0000000000000E+00
(PID.TID 0000.0001) // CG2D normalisation factor =          0.8721311475409838269781670E-03
(PID.TID 0000.0001) 
(PID.TID 0000.0001) // CG3D normalisation factor =          0.9172932330827066738218253E-05
(PID.TID 0000.0001) 
(PID.TID 0000.0001) CONFIG_CHECK: OK
(PID.TID 0000.0001) // =======================================================
(PID.TID 0000.0001) // Model configuration
(PID.TID 0000.0001) // =======================================================
(PID.TID 0000.0001) //
(PID.TID 0000.0001) // "Physical" paramters ( PARM01 in namelist )
(PID.TID 0000.0001) //
(PID.TID 0000.0001) buoyancyRelation = OCEANIC
(PID.TID 0000.0001) tRef =   /* Reference temperature profile ( oC or oK ) */
(PID.TID 0000.0001)                 4.842000000000000E-02,      /* K =  1 */
(PID.TID 0000.0001)                 4.332310000000000E-02,      /* K =  2 */
(PID.TID 0000.0001)                 3.822630000000000E-02,      /* K =  3 */
(PID.TID 0000.0001)                 3.312950000000000E-02,      /* K =  4 */
(PID.TID 0000.0001)                 2.803260000000000E-02,      /* K =  5 */
(PID.TID 0000.0001)                 2.293580000000000E-02,      /* K =  6 */
(PID.TID 0000.0001)                 1.783890000000000E-02,      /* K =  7 */
(PID.TID 0000.0001)                 1.274210000000000E-02,      /* K =  8 */
(PID.TID 0000.0001)                 7.645260000000000E-03,      /* K =  9 */
(PID.TID 0000.0001)                 2.548420000000000E-03,      /* K = 10 */
(PID.TID 0000.0001)                -2.548420000000000E-03,      /* K = 11 */
(PID.TID 0000.0001)                -7.645260000000000E-03,      /* K = 12 */
(PID.TID 0000.0001)                -1.274210000000000E-02,      /* K = 13 */
(PID.TID 0000.0001)                -1.783890000000000E-02,      /* K = 14 */
(PID.TID 0000.0001)                -2.293580000000000E-02,      /* K = 15 */
(PID.TID 0000.0001)                -2.803260000000000E-02,      /* K = 16 */
(PID.TID 0000.0001)                -3.312950000000000E-02,      /* K = 17 */
(PID.TID 0000.0001)                -3.822630000000000E-02,      /* K = 18 */
(PID.TID 0000.0001)                -4.332310000000000E-02,      /* K = 19 */
(PID.TID 0000.0001)                -4.842000000000000E-02       /* K = 20 */
(PID.TID 0000.0001)     ;
(PID.TID 0000.0001) sRef =   /* Reference salinity profile ( ppt ) */
(PID.TID 0000.0001)    20 @  3.500000000000000E+01              /* K =  1: 20 */
(PID.TID 0000.0001)     ;
(PID.TID 0000.0001) viscAh =   /* Lateral eddy viscosity ( m^2/s ) */
(PID.TID 0000.0001)                 1.000000000000000E-02
(PID.TID 0000.0001)     ;
(PID.TID 0000.0001) viscA4 =   /* Lateral biharmonic viscosity ( m^4/s ) */
(PID.TID 0000.0001)                 0.000000000000000E+00
(PID.TID 0000.0001)     ;
(PID.TID 0000.0001) no_slip_sides =  /* Viscous BCs: No-slip sides */
(PID.TID 0000.0001)                   F
(PID.TID 0000.0001)     ;
(PID.TID 0000.0001) viscAr =   /* Vertical eddy viscosity ( units of r^2/s ) */
(PID.TID 0000.0001)                 1.000000000000000E-03
(PID.TID 0000.0001)     ;
(PID.TID 0000.0001) diffKhT =   /* Laplacian diffusion of heat laterally ( m^2/s ) */
(PID.TID 0000.0001)                 1.000000000000000E-02
(PID.TID 0000.0001)     ;
(PID.TID 0000.0001) diffK4T =   /* Bihaarmonic diffusion of heat laterally ( m^4/s ) */
(PID.TID 0000.0001)                 0.000000000000000E+00
(PID.TID 0000.0001)     ;
(PID.TID 0000.0001) diffKrT =   /* Laplacian diffusion of heat vertically ( m^2/s ) */
(PID.TID 0000.0001)                 1.000000000000000E-03
(PID.TID 0000.0001)     ;
(PID.TID 0000.0001) diffKhS =   /* Laplacian diffusion of salt laterally ( m^2/s ) */
(PID.TID 0000.0001)                 1.000000000000000E+03
(PID.TID 0000.0001)     ;
(PID.TID 0000.0001) diffK4S =   /* Bihaarmonic diffusion of salt laterally ( m^4/s ) */
(PID.TID 0000.0001)                 0.000000000000000E+00
(PID.TID 0000.0001)     ;
(PID.TID 0000.0001) diffKrS =   /* Laplacian diffusion of salt vertically ( m^2/s ) */
(PID.TID 0000.0001)                 1.000000000000000E-05
(PID.TID 0000.0001)     ;
(PID.TID 0000.0001)  Equation of State : eosType = LINEAR
(PID.TID 0000.0001) tAlpha =   /* Linear EOS thermal expansion coefficient ( 1/degree ) */
(PID.TID 0000.0001)                 2.000000000000000E-04
(PID.TID 0000.0001)     ;
(PID.TID 0000.0001) sBeta =   /* Linear EOS haline contraction coefficient ( 1/ppt ) */
(PID.TID 0000.0001)                 0.000000000000000E+00
(PID.TID 0000.0001)     ;
(PID.TID 0000.0001) rhonil =   /* Reference density ( kg/m^3 ) */
(PID.TID 0000.0001)                 9.998000000000000E+02
(PID.TID 0000.0001)     ;
(PID.TID 0000.0001) rhoConst =   /* Reference density ( kg/m^3 ) */
(PID.TID 0000.0001)                 9.998000000000000E+02
(PID.TID 0000.0001)     ;
(PID.TID 0000.0001) rhoConstFresh =   /* Reference density ( kg/m^3 ) */
(PID.TID 0000.0001)                 9.998000000000000E+02
(PID.TID 0000.0001)     ;
(PID.TID 0000.0001) gravity =   /* Gravitational acceleration ( m/s^2 ) */
(PID.TID 0000.0001)                 9.810000000000000E+00
(PID.TID 0000.0001)     ;
(PID.TID 0000.0001) gBaro =   /* Barotropic gravity ( m/s^2 ) */
(PID.TID 0000.0001)                 9.810000000000000E+00
(PID.TID 0000.0001)     ;
(PID.TID 0000.0001) rotationPeriod =   /* Rotation Period ( s ) */
(PID.TID 0000.0001)                 8.640000000000000E+04
(PID.TID 0000.0001)     ;
(PID.TID 0000.0001) omega =   /* Angular velocity ( rad/s ) */
(PID.TID 0000.0001)                 7.272205216643040E-05
(PID.TID 0000.0001)     ;
(PID.TID 0000.0001) f0 =   /* Reference coriolis parameter ( 1/s ) */
(PID.TID 0000.0001)                 0.000000000000000E+00
(PID.TID 0000.0001)     ;
(PID.TID 0000.0001) beta =   /* Beta ( 1/(m.s) ) */
(PID.TID 0000.0001)                 0.000000000000000E+00
(PID.TID 0000.0001)     ;
(PID.TID 0000.0001) freeSurfFac =   /* Implicit free surface factor */
(PID.TID 0000.0001)                 1.000000000000000E+00
(PID.TID 0000.0001)     ;
(PID.TID 0000.0001) implicitFreeSurface =   /* Implicit free surface on/off flag */
(PID.TID 0000.0001)                   T
(PID.TID 0000.0001)     ;
(PID.TID 0000.0001) rigidLid =   /* Rigid lid on/off flag */
(PID.TID 0000.0001)                   F
(PID.TID 0000.0001)     ;
(PID.TID 0000.0001) implicSurfPress =   /* Surface Pressure implicit factor (0-1)*/
(PID.TID 0000.0001)                 5.000000000000000E-01
(PID.TID 0000.0001)     ;
(PID.TID 0000.0001) implicDiv2Dflow =   /* Barot. Flow Div. implicit factor (0-1)*/
(PID.TID 0000.0001)                 5.000000000000000E-01
(PID.TID 0000.0001)     ;
(PID.TID 0000.0001) exactConserv =   /* Exact Volume Conservation on/off flag*/
(PID.TID 0000.0001)                   T
(PID.TID 0000.0001)     ;
(PID.TID 0000.0001) uniformLin_PhiSurf =   /* use uniform Bo_surf on/off flag*/
(PID.TID 0000.0001)                   T
(PID.TID 0000.0001)     ;
(PID.TID 0000.0001) nonlinFreeSurf =   /* Non-linear Free Surf. options (-1,0,1,2,3)*/
(PID.TID 0000.0001)                       3
(PID.TID 0000.0001)     ;
(PID.TID 0000.0001)      -1,0= Off ; 1,2,3= On, 2=+rescale gU,gV, 3=+update cg2d solv.
(PID.TID 0000.0001) hFacInf =   /* lower threshold for hFac (nonlinFreeSurf only)*/
(PID.TID 0000.0001)                 2.000000000000000E-01
(PID.TID 0000.0001)     ;
(PID.TID 0000.0001) hFacSup =   /* upper threshold for hFac (nonlinFreeSurf only)*/
(PID.TID 0000.0001)                 1.800000000000000E+00
(PID.TID 0000.0001)     ;
(PID.TID 0000.0001) select_rStar =   /* r* Coordinate options (not yet implemented)*/
(PID.TID 0000.0001)                       0
(PID.TID 0000.0001)     ;
(PID.TID 0000.0001) useRealFreshWaterFlux =   /* Real Fresh Water Flux on/off flag*/
(PID.TID 0000.0001)                   F
(PID.TID 0000.0001)     ;
(PID.TID 0000.0001) convertFW2Salt = /* convert F.W. Flux to Salt Flux (-1=use local S)(ppt)*/
(PID.TID 0000.0001)                 3.500000000000000E+01
(PID.TID 0000.0001)     ;
(PID.TID 0000.0001) nonHydrostatic =  /* Non-Hydrostatic on/off flag */
(PID.TID 0000.0001)                   F
(PID.TID 0000.0001)     ;
(PID.TID 0000.0001) momStepping =  /* Momentum equation on/off flag */
(PID.TID 0000.0001)                   T
(PID.TID 0000.0001)     ;
(PID.TID 0000.0001) momAdvection =  /* Momentum advection on/off flag */
(PID.TID 0000.0001)                   T
(PID.TID 0000.0001)     ;
(PID.TID 0000.0001) momViscosity =  /* Momentum viscosity on/off flag */
(PID.TID 0000.0001)                   T
(PID.TID 0000.0001)     ;
(PID.TID 0000.0001) momImplVertAdv =/* Momentum implicit vert. advection on/off*/
(PID.TID 0000.0001)                   F
(PID.TID 0000.0001)     ;
(PID.TID 0000.0001) implicitViscosity = /* Implicit viscosity on/off flag */
(PID.TID 0000.0001)                   F
(PID.TID 0000.0001)     ;
(PID.TID 0000.0001) useCoriolis =  /* Coriolis on/off flag */
(PID.TID 0000.0001)                   T
(PID.TID 0000.0001)     ;
(PID.TID 0000.0001) useCDscheme =  /* CD scheme on/off flag */
(PID.TID 0000.0001)                   F
(PID.TID 0000.0001)     ;
(PID.TID 0000.0001) useJamartWetPoints= /* Coriolis WetPoints method flag */
(PID.TID 0000.0001)                   F
(PID.TID 0000.0001)     ;
(PID.TID 0000.0001) momForcing =  /* Momentum forcing on/off flag */
(PID.TID 0000.0001)                   T
(PID.TID 0000.0001)     ;
(PID.TID 0000.0001) momPressureForcing =  /* Momentum pressure term on/off flag */
(PID.TID 0000.0001)                   T
(PID.TID 0000.0001)     ;
(PID.TID 0000.0001) staggerTimeStep =   /* Stagger time stepping on/off flag */
(PID.TID 0000.0001)                   F
(PID.TID 0000.0001)     ;
(PID.TID 0000.0001) multiDimAdvection =   /* enable/disable Multi-Dim Advection */
(PID.TID 0000.0001)                   T
(PID.TID 0000.0001)     ;
(PID.TID 0000.0001) implicitDiffusion =/* Implicit Diffusion on/off flag */
(PID.TID 0000.0001)                   F
(PID.TID 0000.0001)     ;
(PID.TID 0000.0001) tempStepping =  /* Temperature equation on/off flag */
(PID.TID 0000.0001)                   T
(PID.TID 0000.0001)     ;
(PID.TID 0000.0001) tempAdvection=  /* Temperature advection on/off flag */
(PID.TID 0000.0001)                   T
(PID.TID 0000.0001)     ;
(PID.TID 0000.0001) tempImplVertAdv =/* Temp. implicit vert. advection on/off */
(PID.TID 0000.0001)                   F
(PID.TID 0000.0001)     ;
(PID.TID 0000.0001) tempForcing  =  /* Temperature forcing on/off flag */
(PID.TID 0000.0001)                   T
(PID.TID 0000.0001)     ;
(PID.TID 0000.0001) saltStepping =  /* Salinity equation on/off flag */
(PID.TID 0000.0001)                   F
(PID.TID 0000.0001)     ;
(PID.TID 0000.0001) saltAdvection=  /* Salinity advection on/off flag */
(PID.TID 0000.0001)                   F
(PID.TID 0000.0001)     ;
(PID.TID 0000.0001) saltImplVertAdv =/* Sali. implicit vert. advection on/off */
(PID.TID 0000.0001)                   F
(PID.TID 0000.0001)     ;
(PID.TID 0000.0001) saltForcing  =  /* Salinity forcing on/off flag */
(PID.TID 0000.0001)                   F
(PID.TID 0000.0001)     ;
(PID.TID 0000.0001) //
(PID.TID 0000.0001) // Elliptic solver(s) paramters ( PARM02 in namelist )
(PID.TID 0000.0001) //
(PID.TID 0000.0001) cg2dMaxIters =   /* Upper limit on 2d con. grad iterations  */
(PID.TID 0000.0001)                    1000
(PID.TID 0000.0001)     ;
(PID.TID 0000.0001) cg2dChkResFreq =   /* 2d con. grad convergence test frequency */
(PID.TID 0000.0001)                       1
(PID.TID 0000.0001)     ;
(PID.TID 0000.0001) cg2dTargetResidual =   /* 2d con. grad target residual  */
(PID.TID 0000.0001)                 1.000000000000000E-13
(PID.TID 0000.0001)     ;
(PID.TID 0000.0001) //
(PID.TID 0000.0001) // Time stepping paramters ( PARM03 in namelist )
(PID.TID 0000.0001) //
(PID.TID 0000.0001) nIter0 =   /* Base timestep number  */
(PID.TID 0000.0001)                       0
(PID.TID 0000.0001)     ;
(PID.TID 0000.0001) nTimeSteps =   /* Number of timesteps */
(PID.TID 0000.0001)                     100
(PID.TID 0000.0001)     ;
(PID.TID 0000.0001) deltatTmom =   /* Momentum equation timestep ( s ) */
(PID.TID 0000.0001)                 5.000000000000000E+02
(PID.TID 0000.0001)     ;
(PID.TID 0000.0001) deltaTfreesurf =   /* FreeSurface equation timestep ( s ) */
(PID.TID 0000.0001)                 5.000000000000000E+02
(PID.TID 0000.0001)     ;
(PID.TID 0000.0001) deltatTtracer =   /* Tracer equation timestep ( s ) */
(PID.TID 0000.0001)                 5.000000000000000E+02
(PID.TID 0000.0001)     ;
(PID.TID 0000.0001) deltatTClock  =   /* Model clock timestep ( s ) */
(PID.TID 0000.0001)                 5.000000000000000E+02
(PID.TID 0000.0001)     ;
(PID.TID 0000.0001) cAdjFreq =   /* Convective adjustment interval ( s ) */
(PID.TID 0000.0001)                 0.000000000000000E+00
(PID.TID 0000.0001)     ;
(PID.TID 0000.0001) forcing_In_AB =   /* put T,S Forcing in Adams-Bash. stepping */
(PID.TID 0000.0001)                   T
(PID.TID 0000.0001)     ;
(PID.TID 0000.0001) abeps =   /* Adams-Bashforth stabilizing weight */
(PID.TID 0000.0001)                 1.000000000000000E-01
(PID.TID 0000.0001)     ;
(PID.TID 0000.0001) startTime =   /* Run start time ( s ). */
(PID.TID 0000.0001)                 0.000000000000000E+00
(PID.TID 0000.0001)     ;
(PID.TID 0000.0001) endTime =   /* Integration ending time ( s ). */
(PID.TID 0000.0001)                 5.000000000000000E+04
(PID.TID 0000.0001)     ;
(PID.TID 0000.0001) pChkPtFreq =   /* Permanent restart/checkpoint file interval ( s ). */
(PID.TID 0000.0001)                 0.000000000000000E+00
(PID.TID 0000.0001)     ;
(PID.TID 0000.0001) chkPtFreq =   /* Rolling restart/checkpoint file interval ( s ). */
(PID.TID 0000.0001)                 0.000000000000000E+00
(PID.TID 0000.0001)     ;
(PID.TID 0000.0001) dumpFreq =   /* Model state write out interval ( s ). */
(PID.TID 0000.0001)                 5.000000000000000E+04
(PID.TID 0000.0001)     ;
(PID.TID 0000.0001) externForcingPeriod =   /* forcing period (s) */
(PID.TID 0000.0001)                 0.000000000000000E+00
(PID.TID 0000.0001)     ;
(PID.TID 0000.0001) externForcingCycle =   /* period of the cyle (s). */
(PID.TID 0000.0001)                 0.000000000000000E+00
(PID.TID 0000.0001)     ;
(PID.TID 0000.0001) tauThetaClimRelax =   /* relaxation time scale (s) */
(PID.TID 0000.0001)                 0.000000000000000E+00
(PID.TID 0000.0001)     ;
(PID.TID 0000.0001) tauSaltClimRelax =   /* relaxation time scale (s) */
(PID.TID 0000.0001)                 0.000000000000000E+00
(PID.TID 0000.0001)     ;
(PID.TID 0000.0001) latBandClimRelax =   /* max. Lat. where relaxation */
(PID.TID 0000.0001)                 5.000000000000000E+03
(PID.TID 0000.0001)     ;
(PID.TID 0000.0001) //
(PID.TID 0000.0001) // Gridding paramters ( PARM04 in namelist )
(PID.TID 0000.0001) //
(PID.TID 0000.0001) usingCartesianGrid =   /* Cartesian coordinates flag ( True / False ) */
(PID.TID 0000.0001)                   T
(PID.TID 0000.0001)     ;
(PID.TID 0000.0001) usingSphericalPolarGrid =   /* Spherical coordinates flag ( True / False ) */
(PID.TID 0000.0001)                   F
(PID.TID 0000.0001)     ;
(PID.TID 0000.0001) groundAtK1 =   /* Lower Boundary (ground) at the surface(k=1) ( T / F ) */
(PID.TID 0000.0001)                   F
(PID.TID 0000.0001)     ;
(PID.TID 0000.0001) Ro_SeaLevel =   /* r(1) ( units of r ) */
(PID.TID 0000.0001)                 0.000000000000000E+00
(PID.TID 0000.0001)     ;
(PID.TID 0000.0001) rkFac =   /* minus Vertical index orientation  */
(PID.TID 0000.0001)                 1.000000000000000E+00
(PID.TID 0000.0001)     ;
(PID.TID 0000.0001) horiVertRatio =   /* Ratio on units : Horiz - Vertical */
(PID.TID 0000.0001)                 1.000000000000000E+00
(PID.TID 0000.0001)     ;
(PID.TID 0000.0001) drC =   /* C spacing ( units of r ) */
(PID.TID 0000.0001)                 5.000000000000000E+00,      /* K =  1 */
(PID.TID 0000.0001)    19 @  1.000000000000000E+01              /* K =  2: 20 */
(PID.TID 0000.0001)     ;
(PID.TID 0000.0001) drF =   /* W spacing ( units of r ) */
(PID.TID 0000.0001)    20 @  1.000000000000000E+01              /* K =  1: 20 */
(PID.TID 0000.0001)     ;
(PID.TID 0000.0001) delX =   /* U spacing ( m - cartesian, degrees - spherical ) */
(PID.TID 0000.0001)    60 @  2.180327868852459E+02              /* I =  1: 60 */
(PID.TID 0000.0001)     ;
(PID.TID 0000.0001) delY =   /* V spacing ( m - cartesian, degrees - spherical ) */
(PID.TID 0000.0001)                 5.000000000000000E+03       /* J =  1 */
(PID.TID 0000.0001)     ;
(PID.TID 0000.0001) phiMin =    /* South edge (ignored - cartesian, degrees - spherical ) */
(PID.TID 0000.0001)                 0.000000000000000E+00
(PID.TID 0000.0001)     ;
(PID.TID 0000.0001) thetaMin =    /* West edge ( ignored - cartesian, degrees - spherical ) */
(PID.TID 0000.0001)                 0.000000000000000E+00
(PID.TID 0000.0001)     ;
(PID.TID 0000.0001) rSphere =    /* Radius ( ignored - cartesian, m - spherical ) */
(PID.TID 0000.0001)                 6.370000000000000E+06
(PID.TID 0000.0001)     ;
(PID.TID 0000.0001) xcoord =   /* P-point X coord ( m - cartesian, degrees - spherical ) */
(PID.TID 0000.0001)                 1.090163934426230E+02,      /* I =  1 */
(PID.TID 0000.0001)                 3.270491803278690E+02,      /* I =  2 */
(PID.TID 0000.0001)                 5.450819672131148E+02,      /* I =  3 */
(PID.TID 0000.0001)                 7.631147540983607E+02,      /* I =  4 */
(PID.TID 0000.0001)                 9.811475409836066E+02,      /* I =  5 */
(PID.TID 0000.0001)                 1.199180327868853E+03,      /* I =  6 */
(PID.TID 0000.0001)                 1.417213114754099E+03,      /* I =  7 */
(PID.TID 0000.0001)                 1.635245901639345E+03,      /* I =  8 */
(PID.TID 0000.0001)                 1.853278688524591E+03,      /* I =  9 */
(PID.TID 0000.0001)                 2.071311475409836E+03,      /* I = 10 */
(PID.TID 0000.0001)                 2.289344262295082E+03,      /* I = 11 */
(PID.TID 0000.0001)                 2.507377049180328E+03,      /* I = 12 */
(PID.TID 0000.0001)                 2.725409836065574E+03,      /* I = 13 */
(PID.TID 0000.0001)                 2.943442622950820E+03,      /* I = 14 */
(PID.TID 0000.0001)                 3.161475409836066E+03,      /* I = 15 */
(PID.TID 0000.0001)                 3.379508196721312E+03,      /* I = 16 */
(PID.TID 0000.0001)                 3.597540983606558E+03,      /* I = 17 */
(PID.TID 0000.0001)                 3.815573770491804E+03,      /* I = 18 */
(PID.TID 0000.0001)                 4.033606557377050E+03,      /* I = 19 */
(PID.TID 0000.0001)                 4.251639344262296E+03,      /* I = 20 */
(PID.TID 0000.0001)                 4.469672131147541E+03,      /* I = 21 */
(PID.TID 0000.0001)                 4.687704918032787E+03,      /* I = 22 */
(PID.TID 0000.0001)                 4.905737704918032E+03,      /* I = 23 */
(PID.TID 0000.0001)                 5.123770491803278E+03,      /* I = 24 */
(PID.TID 0000.0001)                 5.341803278688523E+03,      /* I = 25 */
(PID.TID 0000.0001)                 5.559836065573769E+03,      /* I = 26 */
(PID.TID 0000.0001)                 5.777868852459014E+03,      /* I = 27 */
(PID.TID 0000.0001)                 5.995901639344260E+03,      /* I = 28 */
(PID.TID 0000.0001)                 6.213934426229505E+03,      /* I = 29 */
(PID.TID 0000.0001)                 6.431967213114751E+03,      /* I = 30 */
(PID.TID 0000.0001)                 6.649999999999996E+03,      /* I = 31 */
(PID.TID 0000.0001)                 6.868032786885242E+03,      /* I = 32 */
(PID.TID 0000.0001)                 7.086065573770487E+03,      /* I = 33 */
(PID.TID 0000.0001)                 7.304098360655733E+03,      /* I = 34 */
(PID.TID 0000.0001)                 7.522131147540978E+03,      /* I = 35 */
(PID.TID 0000.0001)                 7.740163934426224E+03,      /* I = 36 */
(PID.TID 0000.0001)                 7.958196721311469E+03,      /* I = 37 */
(PID.TID 0000.0001)                 8.176229508196715E+03,      /* I = 38 */
(PID.TID 0000.0001)                 8.394262295081960E+03,      /* I = 39 */
(PID.TID 0000.0001)                 8.612295081967208E+03,      /* I = 40 */
(PID.TID 0000.0001)                 8.830327868852452E+03,      /* I = 41 */
(PID.TID 0000.0001)                 9.048360655737699E+03,      /* I = 42 */
(PID.TID 0000.0001)                 9.266393442622943E+03,      /* I = 43 */
(PID.TID 0000.0001)                 9.484426229508190E+03,      /* I = 44 */
(PID.TID 0000.0001)                 9.702459016393434E+03,      /* I = 45 */
(PID.TID 0000.0001)                 9.920491803278681E+03,      /* I = 46 */
(PID.TID 0000.0001)                 1.013852459016392E+04,      /* I = 47 */
(PID.TID 0000.0001)                 1.035655737704917E+04,      /* I = 48 */
(PID.TID 0000.0001)                 1.057459016393442E+04,      /* I = 49 */
(PID.TID 0000.0001)                 1.079262295081966E+04,      /* I = 50 */
(PID.TID 0000.0001)                 1.101065573770491E+04,      /* I = 51 */
(PID.TID 0000.0001)                 1.122868852459015E+04,      /* I = 52 */
(PID.TID 0000.0001)                 1.144672131147540E+04,      /* I = 53 */
(PID.TID 0000.0001)                 1.166475409836065E+04,      /* I = 54 */
(PID.TID 0000.0001)                 1.188278688524589E+04,      /* I = 55 */
(PID.TID 0000.0001)                 1.210081967213114E+04,      /* I = 56 */
(PID.TID 0000.0001)                 1.231885245901638E+04,      /* I = 57 */
(PID.TID 0000.0001)                 1.253688524590163E+04,      /* I = 58 */
(PID.TID 0000.0001)                 1.275491803278687E+04,      /* I = 59 */
(PID.TID 0000.0001)                 1.297295081967212E+04       /* I = 60 */
(PID.TID 0000.0001)     ;
(PID.TID 0000.0001) ycoord =   /* P-point Y coord ( m - cartesian, degrees - spherical ) */
(PID.TID 0000.0001)                 2.500000000000000E+03       /* J =  1 */
(PID.TID 0000.0001)     ;
(PID.TID 0000.0001) rcoord =   /* P-point R coordinate (  units of r ) */
(PID.TID 0000.0001)                -5.000000000000000E+00,      /* K =  1 */
(PID.TID 0000.0001)                -1.500000000000000E+01,      /* K =  2 */
(PID.TID 0000.0001)                -2.500000000000000E+01,      /* K =  3 */
(PID.TID 0000.0001)                -3.500000000000000E+01,      /* K =  4 */
(PID.TID 0000.0001)                -4.500000000000000E+01,      /* K =  5 */
(PID.TID 0000.0001)                -5.500000000000000E+01,      /* K =  6 */
(PID.TID 0000.0001)                -6.500000000000000E+01,      /* K =  7 */
(PID.TID 0000.0001)                -7.500000000000000E+01,      /* K =  8 */
(PID.TID 0000.0001)                -8.500000000000000E+01,      /* K =  9 */
(PID.TID 0000.0001)                -9.500000000000000E+01,      /* K = 10 */
(PID.TID 0000.0001)                -1.050000000000000E+02,      /* K = 11 */
(PID.TID 0000.0001)                -1.150000000000000E+02,      /* K = 12 */
(PID.TID 0000.0001)                -1.250000000000000E+02,      /* K = 13 */
(PID.TID 0000.0001)                -1.350000000000000E+02,      /* K = 14 */
(PID.TID 0000.0001)                -1.450000000000000E+02,      /* K = 15 */
(PID.TID 0000.0001)                -1.550000000000000E+02,      /* K = 16 */
(PID.TID 0000.0001)                -1.650000000000000E+02,      /* K = 17 */
(PID.TID 0000.0001)                -1.750000000000000E+02,      /* K = 18 */
(PID.TID 0000.0001)                -1.850000000000000E+02,      /* K = 19 */
(PID.TID 0000.0001)                -1.950000000000000E+02       /* K = 20 */
(PID.TID 0000.0001)     ;
(PID.TID 0000.0001) rF =   /* W-Interf. R coordinate (  units of r ) */
(PID.TID 0000.0001)                 0.000000000000000E+00,      /* K =  1 */
(PID.TID 0000.0001)                -1.000000000000000E+01,      /* K =  2 */
(PID.TID 0000.0001)                -2.000000000000000E+01,      /* K =  3 */
(PID.TID 0000.0001)                -3.000000000000000E+01,      /* K =  4 */
(PID.TID 0000.0001)                -4.000000000000000E+01,      /* K =  5 */
(PID.TID 0000.0001)                -5.000000000000000E+01,      /* K =  6 */
(PID.TID 0000.0001)                -6.000000000000000E+01,      /* K =  7 */
(PID.TID 0000.0001)                -7.000000000000000E+01,      /* K =  8 */
(PID.TID 0000.0001)                -8.000000000000000E+01,      /* K =  9 */
(PID.TID 0000.0001)                -9.000000000000000E+01,      /* K = 10 */
(PID.TID 0000.0001)                -1.000000000000000E+02,      /* K = 11 */
(PID.TID 0000.0001)                -1.100000000000000E+02,      /* K = 12 */
(PID.TID 0000.0001)                -1.200000000000000E+02,      /* K = 13 */
(PID.TID 0000.0001)                -1.300000000000000E+02,      /* K = 14 */
(PID.TID 0000.0001)                -1.400000000000000E+02,      /* K = 15 */
(PID.TID 0000.0001)                -1.500000000000000E+02,      /* K = 16 */
(PID.TID 0000.0001)                -1.600000000000000E+02,      /* K = 17 */
(PID.TID 0000.0001)                -1.700000000000000E+02,      /* K = 18 */
(PID.TID 0000.0001)                -1.800000000000000E+02,      /* K = 19 */
(PID.TID 0000.0001)                -1.900000000000000E+02,      /* K = 20 */
(PID.TID 0000.0001)                -2.000000000000000E+02       /* K = 21 */
(PID.TID 0000.0001)     ;
(PID.TID 0000.0001) dxF =  /* dxF(:,1,:,1) ( m - cartesian, degrees - spherical ) */
(PID.TID 0000.0001)    60 @  2.180327868852459E+02              /* I =  1: 60 */
(PID.TID 0000.0001)     ;
(PID.TID 0000.0001) dxF =  /* dxF(1,:,1,:) ( m - cartesian, degrees - spherical ) */
(PID.TID 0000.0001)                 2.180327868852459E+02       /* J =  1 */
(PID.TID 0000.0001)     ;
(PID.TID 0000.0001) dyF =  /* dyF(:,1,:,1) ( m - cartesian, degrees - spherical ) */
(PID.TID 0000.0001)    60 @  5.000000000000000E+03              /* I =  1: 60 */
(PID.TID 0000.0001)     ;
(PID.TID 0000.0001) dyF =  /* dyF(1,:,1,:) ( m - cartesian, degrees - spherical ) */
(PID.TID 0000.0001)                 5.000000000000000E+03       /* J =  1 */
(PID.TID 0000.0001)     ;
(PID.TID 0000.0001) dxG =  /* dxG(:,1,:,1) ( m - cartesian, degrees - spherical ) */
(PID.TID 0000.0001)    60 @  2.180327868852459E+02              /* I =  1: 60 */
(PID.TID 0000.0001)     ;
(PID.TID 0000.0001) dxG =  /* dxG(1,:,1,:) ( m - cartesian, degrees - spherical ) */
(PID.TID 0000.0001)                 2.180327868852459E+02       /* J =  1 */
(PID.TID 0000.0001)     ;
(PID.TID 0000.0001) dyG =  /* dyG(:,1,:,1) ( m - cartesian, degrees - spherical ) */
(PID.TID 0000.0001)    60 @  5.000000000000000E+03              /* I =  1: 60 */
(PID.TID 0000.0001)     ;
(PID.TID 0000.0001) dyG =  /* dyG(1,:,1,:) ( m - cartesian, degrees - spherical ) */
(PID.TID 0000.0001)                 5.000000000000000E+03       /* J =  1 */
(PID.TID 0000.0001)     ;
(PID.TID 0000.0001) dxC =  /* dxC(:,1,:,1) ( m - cartesian, degrees - spherical ) */
(PID.TID 0000.0001)    60 @  2.180327868852459E+02              /* I =  1: 60 */
(PID.TID 0000.0001)     ;
(PID.TID 0000.0001) dxC =  /* dxC(1,:,1,:) ( m - cartesian, degrees - spherical ) */
(PID.TID 0000.0001)                 2.180327868852459E+02       /* J =  1 */
(PID.TID 0000.0001)     ;
(PID.TID 0000.0001) dyC =  /* dyC(:,1,:,1) ( m - cartesian, degrees - spherical ) */
(PID.TID 0000.0001)    60 @  5.000000000000000E+03              /* I =  1: 60 */
(PID.TID 0000.0001)     ;
(PID.TID 0000.0001) dyC =  /* dyC(1,:,1,:) ( m - cartesian, degrees - spherical ) */
(PID.TID 0000.0001)                 5.000000000000000E+03       /* J =  1 */
(PID.TID 0000.0001)     ;
(PID.TID 0000.0001) dxV =  /* dxV(:,1,:,1) ( m - cartesian, degrees - spherical ) */
(PID.TID 0000.0001)    60 @  2.180327868852459E+02              /* I =  1: 60 */
(PID.TID 0000.0001)     ;
(PID.TID 0000.0001) dxV =  /* dxV(1,:,1,:) ( m - cartesian, degrees - spherical ) */
(PID.TID 0000.0001)                 2.180327868852459E+02       /* J =  1 */
(PID.TID 0000.0001)     ;
(PID.TID 0000.0001) dyU =  /* dyU(:,1,:,1) ( m - cartesian, degrees - spherical ) */
(PID.TID 0000.0001)    60 @  5.000000000000000E+03              /* I =  1: 60 */
(PID.TID 0000.0001)     ;
(PID.TID 0000.0001) dyU =  /* dyU(1,:,1,:) ( m - cartesian, degrees - spherical ) */
(PID.TID 0000.0001)                 5.000000000000000E+03       /* J =  1 */
(PID.TID 0000.0001)     ;
(PID.TID 0000.0001) rA =  /* rA(:,1,:,1) ( m - cartesian, degrees - spherical ) */
(PID.TID 0000.0001)    60 @  1.090163934426229E+06              /* I =  1: 60 */
(PID.TID 0000.0001)     ;
(PID.TID 0000.0001) rA =  /* rA(1,:,1,:) ( m - cartesian, degrees - spherical ) */
(PID.TID 0000.0001)                 1.090163934426229E+06       /* J =  1 */
(PID.TID 0000.0001)     ;
(PID.TID 0000.0001) rAw =  /* rAw(:,1,:,1) ( m - cartesian, degrees - spherical ) */
(PID.TID 0000.0001)    60 @  1.090163934426229E+06              /* I =  1: 60 */
(PID.TID 0000.0001)     ;
(PID.TID 0000.0001) rAw =  /* rAw(1,:,1,:) ( m - cartesian, degrees - spherical ) */
(PID.TID 0000.0001)                 1.090163934426229E+06       /* J =  1 */
(PID.TID 0000.0001)     ;
(PID.TID 0000.0001) rAs =  /* rAs(:,1,:,1) ( m - cartesian, degrees - spherical ) */
(PID.TID 0000.0001)    60 @  1.090163934426229E+06              /* I =  1: 60 */
(PID.TID 0000.0001)     ;
(PID.TID 0000.0001) rAs =  /* rAs(1,:,1,:) ( m - cartesian, degrees - spherical ) */
(PID.TID 0000.0001)                 1.090163934426229E+06       /* J =  1 */
(PID.TID 0000.0001)     ;
(PID.TID 0000.0001) 
(PID.TID 0000.0001)  MDSREADFIELD: opening global file: T.init
(PID.TID 0000.0001) // =======================================================
(PID.TID 0000.0001) // Field Initial Temperature at iteration          1
(PID.TID 0000.0001) // CMIN =          4.841997961264016E-02
(PID.TID 0000.0001) // CMAX =          4.841997961264016E-02
(PID.TID 0000.0001) // CINT =          0.000000000000000E+00
(PID.TID 0000.0001) // SYMBOLS (CMIN->CMAX): -abcdefghijklmnopqrstuvwxyz+
(PID.TID 0000.0001) //                  0.0: .
(PID.TID 0000.0001) // RANGE I (Lo:Hi:Step):(   1:  60:   1)
(PID.TID 0000.0001) // RANGE J (Lo:Hi:Step):(   1:   1:  -1)
(PID.TID 0000.0001) // RANGE K (Lo:Hi:Step):(   1:   1:   1)
(PID.TID 0000.0001) // =======================================================
(PID.TID 0000.0001) // =======================================================
(PID.TID 0000.0001) // END OF FIELD                                          =
(PID.TID 0000.0001) // =======================================================
(PID.TID 0000.0001) 
(PID.TID 0000.0001) // =======================================================
(PID.TID 0000.0001) // Field Initial Salinity at iteration          1
(PID.TID 0000.0001) // CMIN =          3.500000000000000E+01
(PID.TID 0000.0001) // CMAX =          3.500000000000000E+01
(PID.TID 0000.0001) // CINT =          0.000000000000000E+00
(PID.TID 0000.0001) // SYMBOLS (CMIN->CMAX): -abcdefghijklmnopqrstuvwxyz+
(PID.TID 0000.0001) //                  0.0: .
(PID.TID 0000.0001) // RANGE I (Lo:Hi:Step):(   1:  60:   1)
(PID.TID 0000.0001) // RANGE J (Lo:Hi:Step):(   1:   1:  -1)
(PID.TID 0000.0001) // RANGE K (Lo:Hi:Step):(   1:   1:   1)
(PID.TID 0000.0001) // =======================================================
(PID.TID 0000.0001) // =======================================================
(PID.TID 0000.0001) // END OF FIELD                                          =
(PID.TID 0000.0001) // =======================================================
(PID.TID 0000.0001) 
(PID.TID 0000.0001) Start initial hydrostatic pressure computation
(PID.TID 0000.0001) Pressure is predetermined for buoyancyRelation OCEANIC
(PID.TID 0000.0001) 
(PID.TID 0000.0001) // =======================================================
(PID.TID 0000.0001) // Model current state
(PID.TID 0000.0001) // =======================================================
(PID.TID 0000.0001) 
(PID.TID 0000.0001) // =======================================================
(PID.TID 0000.0001) // Begin MONITOR dynamic field statistics
(PID.TID 0000.0001) // =======================================================
(PID.TID 0000.0001) %MON time_tsnumber                =                     0
(PID.TID 0000.0001) %MON time_secondsf                =   0.0000000000000E+00
(PID.TID 0000.0001) %MON dynstat_eta_max              =   0.0000000000000E+00
(PID.TID 0000.0001) %MON dynstat_eta_min              =   0.0000000000000E+00
(PID.TID 0000.0001) %MON dynstat_eta_mean             =   9.3493480575237-163
(PID.TID 0000.0001) %MON dynstat_eta_sd               =   9.3493485964456-163
(PID.TID 0000.0001) %MON dynstat_eta_del2             =   1.0192322062710-155
(PID.TID 0000.0001) %MON dynstat_uvel_max             =   0.0000000000000E+00
(PID.TID 0000.0001) %MON dynstat_uvel_min             =   0.0000000000000E+00
(PID.TID 0000.0001) %MON dynstat_uvel_mean            =   9.3948998782729-164
(PID.TID 0000.0001) %MON dynstat_uvel_sd              =   9.3949868334352-164
(PID.TID 0000.0001) %MON dynstat_uvel_del2            =   1.0072814098826-156
(PID.TID 0000.0001) %MON dynstat_vvel_max             =   0.0000000000000E+00
(PID.TID 0000.0001) %MON dynstat_vvel_min             =   0.0000000000000E+00
(PID.TID 0000.0001) %MON dynstat_vvel_mean            =   9.0854190328275-164
(PID.TID 0000.0001) %MON dynstat_vvel_sd              =   9.0855041310149-164
(PID.TID 0000.0001) %MON dynstat_vvel_del2            =   9.7463047277132-157
(PID.TID 0000.0001) %MON dynstat_wvel_max             =   0.0000000000000E+00
(PID.TID 0000.0001) %MON dynstat_wvel_min             =   0.0000000000000E+00
(PID.TID 0000.0001) %MON dynstat_wvel_mean            =   9.3891325173430-164
(PID.TID 0000.0001) %MON dynstat_wvel_sd              =   9.3891992141118-164
(PID.TID 0000.0001) %MON dynstat_wvel_del2            =   9.7463047277132-157
(PID.TID 0000.0001) %MON dynstat_theta_max            =   4.8420000000000E-02
(PID.TID 0000.0001) %MON dynstat_theta_min            =  -4.8420000000000E-02
(PID.TID 0000.0001) %MON dynstat_theta_mean           =   1.3984481732139E-02
(PID.TID 0000.0001) %MON dynstat_theta_sd             =   2.7839130810646E-02
(PID.TID 0000.0001) %MON dynstat_theta_del2           =   2.9272547939936E-10
(PID.TID 0000.0001) %MON dynstat_salt_max             =   3.5000000000000E+01
(PID.TID 0000.0001) %MON dynstat_salt_min             =   0.0000000000000E+00
(PID.TID 0000.0001) %MON dynstat_salt_mean            =   3.3847052152665E+01
(PID.TID 0000.0001) %MON dynstat_salt_sd              =   6.2469101096520E+00
(PID.TID 0000.0001) %MON dynstat_salt_del2            =   5.6726094003241E-01
(PID.TID 0000.0001) %MON advcfl_uvel_max              =   0.0000000000000E+00
(PID.TID 0000.0001) %MON advcfl_vvel_max              =   0.0000000000000E+00
(PID.TID 0000.0001) %MON advcfl_wvel_max              =   0.0000000000000E+00
(PID.TID 0000.0001) %MON advcfl_W_hf_max              =   0.0000000000000E+00
(PID.TID 0000.0001) %MON pe_b_mean                    =   0.0000000000000E+00
(PID.TID 0000.0001) %MON ke_max                       =   0.0000000000000E+00
(PID.TID 0000.0001) %MON ke_mean                      =   0.0000000000000E+00
(PID.TID 0000.0001) %MON ke_vol                       =   6.6188141628594E+09
(PID.TID 0000.0001) %MON vort_r_min                   =   0.0000000000000E+00
(PID.TID 0000.0001) %MON vort_r_max                   =   0.0000000000000E+00
(PID.TID 0000.0001) %MON vort_a_mean                  =   0.0000000000000E+00
(PID.TID 0000.0001) %MON vort_a_sd                    =   0.0000000000000E+00
(PID.TID 0000.0001) %MON vort_p_mean                  =   0.0000000000000E+00
(PID.TID 0000.0001) %MON vort_p_sd                    =   0.0000000000000E+00
(PID.TID 0000.0001) %MON surfExpan_theta_mean         =   0.0000000000000E+00
(PID.TID 0000.0001) %MON surfExpan_salt_mean          =   0.0000000000000E+00
(PID.TID 0000.0001) // =======================================================
(PID.TID 0000.0001) // End MONITOR dynamic field statistics
(PID.TID 0000.0001) // =======================================================
 cg2d: Sum(rhs),rhsMax =   1.00000000000000E+00  1.21032510061595E-20
(PID.TID 0000.0001)                    cg2d_init_res =    1.00000000000000E+00
(PID.TID 0000.0001)                       cg2d_iters =    58
(PID.TID 0000.0001)                         cg2d_res =    6.43006207236373E-17
 cg2d: Sum(rhs),rhsMax =  -3.60492885542740E-13  1.07634058188289E-06
 cg2d: Sum(rhs),rhsMax =  -1.91959078840731E-14  7.54886693748842E-05
 cg2d: Sum(rhs),rhsMax =  -2.49841685155076E-14  9.21591535076929E-05
 cg2d: Sum(rhs),rhsMax =  -1.38716078554313E-14  1.87619597704975E-04
(PID.TID 0000.0001) // =======================================================
(PID.TID 0000.0001) // Begin MONITOR dynamic field statistics
(PID.TID 0000.0001) // =======================================================
(PID.TID 0000.0001) %MON time_tsnumber                =                     5
(PID.TID 0000.0001) %MON time_secondsf                =   2.5000000000000E+03
(PID.TID 0000.0001) %MON dynstat_eta_max              =   1.8838689085545E-05
(PID.TID 0000.0001) %MON dynstat_eta_min              =  -7.0430999055478E-07
(PID.TID 0000.0001) %MON dynstat_eta_mean             =   1.0379645554811E-17
(PID.TID 0000.0001) %MON dynstat_eta_sd               =   2.4811881881363E-06
(PID.TID 0000.0001) %MON dynstat_eta_del2             =   3.2213351752450E-07
(PID.TID 0000.0001) %MON dynstat_uvel_max             =   8.0150165287875E-03
(PID.TID 0000.0001) %MON dynstat_uvel_min             =  -8.0150165287875E-03
(PID.TID 0000.0001) %MON dynstat_uvel_mean            =  -2.1302863360891E-08
(PID.TID 0000.0001) %MON dynstat_uvel_sd              =   1.0524319999168E-03
(PID.TID 0000.0001) %MON dynstat_uvel_del2            =   7.9323456744431E-05
(PID.TID 0000.0001) %MON dynstat_vvel_max             =   0.0000000000000E+00
(PID.TID 0000.0001) %MON dynstat_vvel_min             =   0.0000000000000E+00
(PID.TID 0000.0001) %MON dynstat_vvel_mean            =   9.0854190328275-164
(PID.TID 0000.0001) %MON dynstat_vvel_sd              =   9.0855041310149-164
(PID.TID 0000.0001) %MON dynstat_vvel_del2            =   9.7463047277132-157
(PID.TID 0000.0001) %MON dynstat_wvel_max             =   2.3499042947512E-03
(PID.TID 0000.0001) %MON dynstat_wvel_min             =  -2.1666602986529E-03
(PID.TID 0000.0001) %MON dynstat_wvel_mean            =  -1.0398810672490E-20
(PID.TID 0000.0001) %MON dynstat_wvel_sd              =   4.1768560235115E-04
(PID.TID 0000.0001) %MON dynstat_wvel_del2            =   6.6962012505239E-05
(PID.TID 0000.0001) %MON dynstat_theta_max            =   4.8751308589830E-02
(PID.TID 0000.0001) %MON dynstat_theta_min            =  -4.8294115600338E-02
(PID.TID 0000.0001) %MON dynstat_theta_mean           =   1.4104583444709E-02
(PID.TID 0000.0001) %MON dynstat_theta_sd             =   2.7763973874816E-02
(PID.TID 0000.0001) %MON dynstat_theta_del2           =   3.2102147848860E-05
(PID.TID 0000.0001) %MON dynstat_salt_max             =   3.5000000000000E+01
(PID.TID 0000.0001) %MON dynstat_salt_min             =   0.0000000000000E+00
(PID.TID 0000.0001) %MON dynstat_salt_mean            =   3.3847052152665E+01
(PID.TID 0000.0001) %MON dynstat_salt_sd              =   6.2469101096520E+00
(PID.TID 0000.0001) %MON dynstat_salt_del2            =   5.6726094003241E-01
(PID.TID 0000.0001) %MON advcfl_uvel_max              =   1.8380301062257E-02
(PID.TID 0000.0001) %MON advcfl_vvel_max              =   0.0000000000000E+00
(PID.TID 0000.0001) %MON advcfl_wvel_max              =   1.1749521473756E-01
(PID.TID 0000.0001) %MON advcfl_W_hf_max              =   1.1749521473756E-01
(PID.TID 0000.0001) %MON pe_b_mean                    =   2.9344185279745E-13
(PID.TID 0000.0001) %MON ke_max                       =   1.6167187656620E-05
(PID.TID 0000.0001) %MON ke_mean                      =   5.3556341203711E-07
(PID.TID 0000.0001) %MON ke_vol                       =   6.6188141628594E+09
(PID.TID 0000.0001) %MON vort_r_min                   =   0.0000000000000E+00
(PID.TID 0000.0001) %MON vort_r_max                   =   0.0000000000000E+00
(PID.TID 0000.0001) %MON vort_a_mean                  =   0.0000000000000E+00
(PID.TID 0000.0001) %MON vort_a_sd                    =   0.0000000000000E+00
(PID.TID 0000.0001) %MON vort_p_mean                  =   0.0000000000000E+00
(PID.TID 0000.0001) %MON vort_p_sd                    =   0.0000000000000E+00
(PID.TID 0000.0001) %MON surfExpan_theta_mean         =   1.2266535737423E-13
(PID.TID 0000.0001) %MON surfExpan_salt_mean          =   3.1441911960778E-19
(PID.TID 0000.0001) // =======================================================
(PID.TID 0000.0001) // End MONITOR dynamic field statistics
(PID.TID 0000.0001) // =======================================================
 cg2d: Sum(rhs),rhsMax =  -1.79956283164959E-14  2.18318804270718E-04
(PID.TID 0000.0001)                    cg2d_init_res =    1.80512690562136E-01
(PID.TID 0000.0001)                       cg2d_iters =    58
(PID.TID 0000.0001)                         cg2d_res =    8.43698888323109E-20
 cg2d: Sum(rhs),rhsMax =  -1.59744044164398E-14  3.19782805327352E-04
 cg2d: Sum(rhs),rhsMax =  -1.63886035276471E-14  3.50014219844934E-04
 cg2d: Sum(rhs),rhsMax =  -1.57115152475234E-14  4.42716694814966E-04
 cg2d: Sum(rhs),rhsMax =  -1.87765655888100E-14  4.59164943925446E-04
(PID.TID 0000.0001) // =======================================================
(PID.TID 0000.0001) // Begin MONITOR dynamic field statistics
(PID.TID 0000.0001) // =======================================================
(PID.TID 0000.0001) %MON time_tsnumber                =                    10
(PID.TID 0000.0001) %MON time_secondsf                =   5.0000000000000E+03
(PID.TID 0000.0001) %MON dynstat_eta_max              =   5.6399027008479E-05
(PID.TID 0000.0001) %MON dynstat_eta_min              =  -1.5266432575232E-06
(PID.TID 0000.0001) %MON dynstat_eta_mean             =   3.6413918584289E-17
(PID.TID 0000.0001) %MON dynstat_eta_sd               =   7.5402177439573E-06
(PID.TID 0000.0001) %MON dynstat_eta_del2             =   8.7528850642122E-07
(PID.TID 0000.0001) %MON dynstat_uvel_max             =   1.5044623392047E-02
(PID.TID 0000.0001) %MON dynstat_uvel_min             =  -1.5044623392047E-02
(PID.TID 0000.0001) %MON dynstat_uvel_mean            =  -2.4951840627848E-08
(PID.TID 0000.0001) %MON dynstat_uvel_sd              =   2.0643256049420E-03
(PID.TID 0000.0001) %MON dynstat_uvel_del2            =   1.1145793345250E-04
(PID.TID 0000.0001) %MON dynstat_vvel_max             =   0.0000000000000E+00
(PID.TID 0000.0001) %MON dynstat_vvel_min             =   0.0000000000000E+00
(PID.TID 0000.0001) %MON dynstat_vvel_mean            =   9.0854190328275-164
(PID.TID 0000.0001) %MON dynstat_vvel_sd              =   9.0855041310149-164
(PID.TID 0000.0001) %MON dynstat_vvel_del2            =   9.7463047277132-157
(PID.TID 0000.0001) %MON dynstat_wvel_max             =   4.4108985920249E-03
(PID.TID 0000.0001) %MON dynstat_wvel_min             =  -3.0321641043089E-03
(PID.TID 0000.0001) %MON dynstat_wvel_mean            =   1.8804843787025E-20
(PID.TID 0000.0001) %MON dynstat_wvel_sd              =   7.1721363097602E-04
(PID.TID 0000.0001) %MON dynstat_wvel_del2            =   9.5119473066052E-05
(PID.TID 0000.0001) %MON dynstat_theta_max            =   4.9041884302128E-02
(PID.TID 0000.0001) %MON dynstat_theta_min            =  -4.8171354040724E-02
(PID.TID 0000.0001) %MON dynstat_theta_mean           =   1.4274714644170E-02
(PID.TID 0000.0001) %MON dynstat_theta_sd             =   2.7676197659039E-02
(PID.TID 0000.0001) %MON dynstat_theta_del2           =   4.9483496699873E-05
(PID.TID 0000.0001) %MON dynstat_salt_max             =   3.5000000000000E+01
(PID.TID 0000.0001) %MON dynstat_salt_min             =   0.0000000000000E+00
(PID.TID 0000.0001) %MON dynstat_salt_mean            =   3.3847052152665E+01
(PID.TID 0000.0001) %MON dynstat_salt_sd              =   6.2469101096520E+00
(PID.TID 0000.0001) %MON dynstat_salt_del2            =   5.6726094003241E-01
(PID.TID 0000.0001) %MON advcfl_uvel_max              =   3.4500828079506E-02
(PID.TID 0000.0001) %MON advcfl_vvel_max              =   0.0000000000000E+00
(PID.TID 0000.0001) %MON advcfl_wvel_max              =   2.2054492960125E-01
(PID.TID 0000.0001) %MON advcfl_W_hf_max              =   2.2054492960125E-01
(PID.TID 0000.0001) %MON pe_b_mean                    =   2.7100070523385E-12
(PID.TID 0000.0001) %MON ke_max                       =   6.2418922137623E-05
(PID.TID 0000.0001) %MON ke_mean                      =   2.0605312399552E-06
(PID.TID 0000.0001) %MON ke_vol                       =   6.6188141628594E+09
(PID.TID 0000.0001) %MON vort_r_min                   =   0.0000000000000E+00
(PID.TID 0000.0001) %MON vort_r_max                   =   0.0000000000000E+00
(PID.TID 0000.0001) %MON vort_a_mean                  =   0.0000000000000E+00
(PID.TID 0000.0001) %MON vort_a_sd                    =   0.0000000000000E+00
(PID.TID 0000.0001) %MON vort_p_mean                  =   0.0000000000000E+00
(PID.TID 0000.0001) %MON vort_p_sd                    =   0.0000000000000E+00
(PID.TID 0000.0001) %MON surfExpan_theta_mean         =  -5.6700727633572E-13
(PID.TID 0000.0001) %MON surfExpan_salt_mean          =   5.8555662559086E-19
(PID.TID 0000.0001) // =======================================================
(PID.TID 0000.0001) // End MONITOR dynamic field statistics
(PID.TID 0000.0001) // =======================================================
 cg2d: Sum(rhs),rhsMax =  -2.06292773662076E-14  5.31285549575937E-04
(PID.TID 0000.0001)                    cg2d_init_res =    1.63978143863569E-01
(PID.TID 0000.0001)                       cg2d_iters =    58
(PID.TID 0000.0001)                         cg2d_res =    2.09291328700409E-19
 cg2d: Sum(rhs),rhsMax =  -2.27653724864385E-14  5.24996738330751E-04
 cg2d: Sum(rhs),rhsMax =  -2.39945324893853E-14  5.70212072496064E-04
 cg2d: Sum(rhs),rhsMax =  -3.07918160370388E-14  5.38368110868644E-04
 cg2d: Sum(rhs),rhsMax =  -3.03364511245949E-14  5.56671346386878E-04
(PID.TID 0000.0001) // =======================================================
(PID.TID 0000.0001) // Begin MONITOR dynamic field statistics
(PID.TID 0000.0001) // =======================================================
(PID.TID 0000.0001) %MON time_tsnumber                =                    15
(PID.TID 0000.0001) %MON time_secondsf                =   7.5000000000000E+03
(PID.TID 0000.0001) %MON dynstat_eta_max              =   9.4236610522241E-05
(PID.TID 0000.0001) %MON dynstat_eta_min              =  -3.2392787646678E-06
(PID.TID 0000.0001) %MON dynstat_eta_mean             =   6.9565687208063E-17
(PID.TID 0000.0001) %MON dynstat_eta_sd               =   1.3429892775103E-05
(PID.TID 0000.0001) %MON dynstat_eta_del2             =   1.2810254104415E-06
(PID.TID 0000.0001) %MON dynstat_uvel_max             =   2.0224562540773E-02
(PID.TID 0000.0001) %MON dynstat_uvel_min             =  -2.0224562540773E-02
(PID.TID 0000.0001) %MON dynstat_uvel_mean            =  -3.7273760729411E-08
(PID.TID 0000.0001) %MON dynstat_uvel_sd              =   3.0889812337668E-03
(PID.TID 0000.0001) %MON dynstat_uvel_del2            =   9.5879331902789E-05
(PID.TID 0000.0001) %MON dynstat_vvel_max             =   0.0000000000000E+00
(PID.TID 0000.0001) %MON dynstat_vvel_min             =   0.0000000000000E+00
(PID.TID 0000.0001) %MON dynstat_vvel_mean            =   9.0854190328275-164
(PID.TID 0000.0001) %MON dynstat_vvel_sd              =   9.0855041310149-164
(PID.TID 0000.0001) %MON dynstat_vvel_del2            =   9.7463047277132-157
(PID.TID 0000.0001) %MON dynstat_wvel_max             =   5.9295930586453E-03
(PID.TID 0000.0001) %MON dynstat_wvel_min             =  -2.5843099540541E-03
(PID.TID 0000.0001) %MON dynstat_wvel_mean            =   3.0761297600058E-20
(PID.TID 0000.0001) %MON dynstat_wvel_sd              =   9.0928130746266E-04
(PID.TID 0000.0001) %MON dynstat_wvel_del2            =   1.0524125506192E-04
(PID.TID 0000.0001) %MON dynstat_theta_max            =   4.9256002180563E-02
(PID.TID 0000.0001) %MON dynstat_theta_min            =  -4.8051473518898E-02
(PID.TID 0000.0001) %MON dynstat_theta_mean           =   1.4472192453959E-02
(PID.TID 0000.0001) %MON dynstat_theta_sd             =   2.7584718696434E-02
(PID.TID 0000.0001) %MON dynstat_theta_del2           =   6.3960206394634E-05
(PID.TID 0000.0001) %MON dynstat_salt_max             =   3.5000000000000E+01
(PID.TID 0000.0001) %MON dynstat_salt_min             =   0.0000000000000E+00
(PID.TID 0000.0001) %MON dynstat_salt_mean            =   3.3847052152665E+01
(PID.TID 0000.0001) %MON dynstat_salt_sd              =   6.2469101096520E+00
(PID.TID 0000.0001) %MON dynstat_salt_del2            =   5.6726094003241E-01
(PID.TID 0000.0001) %MON advcfl_uvel_max              =   4.6379635901772E-02
(PID.TID 0000.0001) %MON advcfl_vvel_max              =   0.0000000000000E+00
(PID.TID 0000.0001) %MON advcfl_wvel_max              =   2.9647965293226E-01
(PID.TID 0000.0001) %MON advcfl_W_hf_max              =   2.9647965293226E-01
(PID.TID 0000.0001) %MON pe_b_mean                    =   8.5970160321393E-12
(PID.TID 0000.0001) %MON ke_max                       =   1.3729536886650E-04
(PID.TID 0000.0001) %MON ke_mean                      =   4.6137424363250E-06
(PID.TID 0000.0001) %MON ke_vol                       =   6.6188141628594E+09
(PID.TID 0000.0001) %MON vort_r_min                   =   0.0000000000000E+00
(PID.TID 0000.0001) %MON vort_r_max                   =   0.0000000000000E+00
(PID.TID 0000.0001) %MON vort_a_mean                  =   0.0000000000000E+00
(PID.TID 0000.0001) %MON vort_a_sd                    =   0.0000000000000E+00
(PID.TID 0000.0001) %MON vort_p_mean                  =   0.0000000000000E+00
(PID.TID 0000.0001) %MON vort_p_sd                    =   0.0000000000000E+00
(PID.TID 0000.0001) %MON surfExpan_theta_mean         =   1.7999091637474E-12
(PID.TID 0000.0001) %MON surfExpan_salt_mean          =   5.7338623200296E-19
(PID.TID 0000.0001) // =======================================================
(PID.TID 0000.0001) // End MONITOR dynamic field statistics
(PID.TID 0000.0001) // =======================================================
 cg2d: Sum(rhs),rhsMax =  -3.70600360295736E-14  5.02430297234118E-04
(PID.TID 0000.0001)                    cg2d_init_res =    2.48273127592104E-01
(PID.TID 0000.0001)                       cg2d_iters =    58
(PID.TID 0000.0001)                         cg2d_res =    1.93059479503408E-19
 cg2d: Sum(rhs),rhsMax =  -4.28905229474946E-14  4.99101069056875E-04
 cg2d: Sum(rhs),rhsMax =  -4.87060478754353E-14  4.29800746574540E-04
 cg2d: Sum(rhs),rhsMax =  -5.60835286631672E-14  4.13045463401820E-04
 cg2d: Sum(rhs),rhsMax =  -8.05599077030594E-14  3.37550625770051E-04
(PID.TID 0000.0001) // =======================================================
(PID.TID 0000.0001) // Begin MONITOR dynamic field statistics
(PID.TID 0000.0001) // =======================================================
(PID.TID 0000.0001) %MON time_tsnumber                =                    20
(PID.TID 0000.0001) %MON time_secondsf                =   1.0000000000000E+04
(PID.TID 0000.0001) %MON dynstat_eta_max              =   1.1182879653371E-04
(PID.TID 0000.0001) %MON dynstat_eta_min              =  -4.7888533290098E-06
(PID.TID 0000.0001) %MON dynstat_eta_mean             =   1.2479764679025E-16
(PID.TID 0000.0001) %MON dynstat_eta_sd               =   1.8386783569089E-05
(PID.TID 0000.0001) %MON dynstat_eta_del2             =   1.4008375615540E-06
(PID.TID 0000.0001) %MON dynstat_uvel_max             =   2.2917984121235E-02
(PID.TID 0000.0001) %MON dynstat_uvel_min             =  -2.2917984121235E-02
(PID.TID 0000.0001) %MON dynstat_uvel_mean            =  -2.7462650082932E-08
(PID.TID 0000.0001) %MON dynstat_uvel_sd              =   4.0273407192776E-03
(PID.TID 0000.0001) %MON dynstat_uvel_del2            =   1.0903388202252E-04
(PID.TID 0000.0001) %MON dynstat_vvel_max             =   0.0000000000000E+00
(PID.TID 0000.0001) %MON dynstat_vvel_min             =   0.0000000000000E+00
(PID.TID 0000.0001) %MON dynstat_vvel_mean            =   9.0854190328275-164
(PID.TID 0000.0001) %MON dynstat_vvel_sd              =   9.0855041310149-164
(PID.TID 0000.0001) %MON dynstat_vvel_del2            =   9.7463047277132-157
(PID.TID 0000.0001) %MON dynstat_wvel_max             =   6.7192711481128E-03
(PID.TID 0000.0001) %MON dynstat_wvel_min             =  -2.9013866890775E-03
(PID.TID 0000.0001) %MON dynstat_wvel_mean            =  -9.6938219729373E-21
(PID.TID 0000.0001) %MON dynstat_wvel_sd              =   1.0050191601109E-03
(PID.TID 0000.0001) %MON dynstat_wvel_del2            =   9.7490249946474E-05
(PID.TID 0000.0001) %MON dynstat_theta_max            =   4.9367337410184E-02
(PID.TID 0000.0001) %MON dynstat_theta_min            =  -4.7934334555807E-02
(PID.TID 0000.0001) %MON dynstat_theta_mean           =   1.4672639466557E-02
(PID.TID 0000.0001) %MON dynstat_theta_sd             =   2.7494396749582E-02
(PID.TID 0000.0001) %MON dynstat_theta_del2           =   6.1747896400981E-05
(PID.TID 0000.0001) %MON dynstat_salt_max             =   3.5000000000000E+01
(PID.TID 0000.0001) %MON dynstat_salt_min             =   0.0000000000000E+00
(PID.TID 0000.0001) %MON dynstat_salt_mean            =   3.3847052152665E+01
(PID.TID 0000.0001) %MON dynstat_salt_sd              =   6.2469101096520E+00
(PID.TID 0000.0001) %MON dynstat_salt_del2            =   5.6726094003241E-01
(PID.TID 0000.0001) %MON advcfl_uvel_max              =   5.2556279375764E-02
(PID.TID 0000.0001) %MON advcfl_vvel_max              =   0.0000000000000E+00
(PID.TID 0000.0001) %MON advcfl_wvel_max              =   3.3596355740564E-01
(PID.TID 0000.0001) %MON advcfl_W_hf_max              =   3.3596355740564E-01
(PID.TID 0000.0001) %MON pe_b_mean                    =   1.6114401277784E-11
(PID.TID 0000.0001) %MON ke_max                       =   2.1957134513114E-04
(PID.TID 0000.0001) %MON ke_mean                      =   7.8425906020700E-06
(PID.TID 0000.0001) %MON ke_vol                       =   6.6188141628594E+09
(PID.TID 0000.0001) %MON vort_r_min                   =   0.0000000000000E+00
(PID.TID 0000.0001) %MON vort_r_max                   =   0.0000000000000E+00
(PID.TID 0000.0001) %MON vort_a_mean                  =   0.0000000000000E+00
(PID.TID 0000.0001) %MON vort_a_sd                    =   0.0000000000000E+00
(PID.TID 0000.0001) %MON vort_p_mean                  =   0.0000000000000E+00
(PID.TID 0000.0001) %MON vort_p_sd                    =   0.0000000000000E+00
(PID.TID 0000.0001) %MON surfExpan_theta_mean         =  -1.9404285756184E-12
(PID.TID 0000.0001) %MON surfExpan_salt_mean          =   6.0625532496353E-19
(PID.TID 0000.0001) // =======================================================
(PID.TID 0000.0001) // End MONITOR dynamic field statistics
(PID.TID 0000.0001) // =======================================================
 cg2d: Sum(rhs),rhsMax =  -9.69936479223998E-14  3.15794230600459E-04
(PID.TID 0000.0001)                    cg2d_init_res =    1.82904418295988E-01
(PID.TID 0000.0001)                       cg2d_iters =    58
(PID.TID 0000.0001)                         cg2d_res =    4.58381914610955E-19
 cg2d: Sum(rhs),rhsMax =  -1.06984950412614E-13  2.89168296522594E-04
 cg2d: Sum(rhs),rhsMax =  -1.09993503021044E-13  2.90431798535224E-04
 cg2d: Sum(rhs),rhsMax =  -9.49860849697171E-14  3.41072694219237E-04
 cg2d: Sum(rhs),rhsMax =  -1.07292104888079E-13  3.17878452839140E-04
(PID.TID 0000.0001) // =======================================================
(PID.TID 0000.0001) // Begin MONITOR dynamic field statistics
(PID.TID 0000.0001) // =======================================================
(PID.TID 0000.0001) %MON time_tsnumber                =                    25
(PID.TID 0000.0001) %MON time_secondsf                =   1.2500000000000E+04
(PID.TID 0000.0001) %MON dynstat_eta_max              =   1.1828616548641E-04
(PID.TID 0000.0001) %MON dynstat_eta_min              =  -6.3665385986121E-06
(PID.TID 0000.0001) %MON dynstat_eta_mean             =   1.5232146227333E-16
(PID.TID 0000.0001) %MON dynstat_eta_sd               =   2.2527879076980E-05
(PID.TID 0000.0001) %MON dynstat_eta_del2             =   1.3982742685189E-06
(PID.TID 0000.0001) %MON dynstat_uvel_max             =   2.2793744255040E-02
(PID.TID 0000.0001) %MON dynstat_uvel_min             =  -2.2844529130039E-02
(PID.TID 0000.0001) %MON dynstat_uvel_mean            =  -4.7938943638791E-08
[...]
(PID.TID 0000.0001) %MON advcfl_vvel_max              =   0.0000000000000E+00
(PID.TID 0000.0001) %MON advcfl_wvel_max              =   1.5924662957238E-01
(PID.TID 0000.0001) %MON advcfl_W_hf_max              =   1.5924662957238E-01
(PID.TID 0000.0001) %MON pe_b_mean                    =   1.2170043527904E-10
(PID.TID 0000.0001) %MON ke_max                       =   2.4118870525510E-04
(PID.TID 0000.0001) %MON ke_mean                      =   2.6435190496649E-05
(PID.TID 0000.0001) %MON ke_vol                       =   6.6188141628594E+09
(PID.TID 0000.0001) %MON vort_r_min                   =   0.0000000000000E+00
(PID.TID 0000.0001) %MON vort_r_max                   =   0.0000000000000E+00
(PID.TID 0000.0001) %MON vort_a_mean                  =   0.0000000000000E+00
(PID.TID 0000.0001) %MON vort_a_sd                    =   0.0000000000000E+00
(PID.TID 0000.0001) %MON vort_p_mean                  =   0.0000000000000E+00
(PID.TID 0000.0001) %MON vort_p_sd                    =   0.0000000000000E+00
(PID.TID 0000.0001) %MON surfExpan_theta_mean         =   1.7399469047595E-12
(PID.TID 0000.0001) %MON surfExpan_salt_mean          =  -8.5983077498952E-19
(PID.TID 0000.0001) // =======================================================
(PID.TID 0000.0001) // End MONITOR dynamic field statistics
(PID.TID 0000.0001) // =======================================================
 cg2d: Sum(rhs),rhsMax =  -7.24984308697607E-15  7.06721955305726E-04
(PID.TID 0000.0001)                    cg2d_init_res =    1.49729259674543E-01
(PID.TID 0000.0001)                       cg2d_iters =    58
(PID.TID 0000.0001)                         cg2d_res =    7.26470755760527E-20
 cg2d: Sum(rhs),rhsMax =  -7.02259431162311E-15  7.28499858412039E-04
 cg2d: Sum(rhs),rhsMax =  -6.36773619944186E-15  6.98714133603081E-04
 cg2d: Sum(rhs),rhsMax =  -6.40633379678235E-15  7.12965035378434E-04
 cg2d: Sum(rhs),rhsMax =  -6.18125342577436E-15  6.75746735845099E-04
(PID.TID 0000.0001) // =======================================================
(PID.TID 0000.0001) // Begin MONITOR dynamic field statistics
(PID.TID 0000.0001) // =======================================================
(PID.TID 0000.0001) %MON time_tsnumber                =                    95
(PID.TID 0000.0001) %MON time_secondsf                =   4.7500000000000E+04
(PID.TID 0000.0001) %MON dynstat_eta_max              =   1.1103064098005E-04
(PID.TID 0000.0001) %MON dynstat_eta_min              =  -1.8268911539188E-04
(PID.TID 0000.0001) %MON dynstat_eta_mean             =   2.1575407649597E-17
(PID.TID 0000.0001) %MON dynstat_eta_sd               =   5.1094388900178E-05
(PID.TID 0000.0001) %MON dynstat_eta_del2             =   1.6462705936844E-06
(PID.TID 0000.0001) %MON dynstat_uvel_max             =   2.2263519121248E-02
(PID.TID 0000.0001) %MON dynstat_uvel_min             =  -2.4165063849046E-02
(PID.TID 0000.0001) %MON dynstat_uvel_mean            =   9.1724179013767E-09
(PID.TID 0000.0001) %MON dynstat_uvel_sd              =   7.4447162969103E-03
(PID.TID 0000.0001) %MON dynstat_uvel_del2            =   3.3150358107164E-04
(PID.TID 0000.0001) %MON dynstat_vvel_max             =   0.0000000000000E+00
(PID.TID 0000.0001) %MON dynstat_vvel_min             =   0.0000000000000E+00
(PID.TID 0000.0001) %MON dynstat_vvel_mean            =   9.0854190328275-164
(PID.TID 0000.0001) %MON dynstat_vvel_sd              =   9.0855024878337-164
(PID.TID 0000.0001) %MON dynstat_vvel_del2            =   9.7463047277132-157
(PID.TID 0000.0001) %MON dynstat_wvel_max             =   3.0345269839572E-03
(PID.TID 0000.0001) %MON dynstat_wvel_min             =  -3.2054272155912E-03
(PID.TID 0000.0001) %MON dynstat_wvel_mean            =  -2.5289040489677E-21
(PID.TID 0000.0001) %MON dynstat_wvel_sd              =   1.1410839629086E-03
(PID.TID 0000.0001) %MON dynstat_wvel_del2            =   1.1067822780892E-04
(PID.TID 0000.0001) %MON dynstat_theta_max            =   4.8805643906507E-02
(PID.TID 0000.0001) %MON dynstat_theta_min            =  -4.8034356093493E-02
(PID.TID 0000.0001) %MON dynstat_theta_mean           =   1.4133418250141E-02
(PID.TID 0000.0001) %MON dynstat_theta_sd             =   2.7671204095153E-02
(PID.TID 0000.0001) %MON dynstat_theta_del2           =   1.8860853916718E-04
(PID.TID 0000.0001) %MON dynstat_salt_max             =   3.5000000000000E+01
(PID.TID 0000.0001) %MON dynstat_salt_min             =   0.0000000000000E+00
(PID.TID 0000.0001) %MON dynstat_salt_mean            =   3.3847052152665E+01
(PID.TID 0000.0001) %MON dynstat_salt_sd              =   6.2469101096520E+00
(PID.TID 0000.0001) %MON dynstat_salt_del2            =   5.6726094003241E-01
(PID.TID 0000.0001) %MON advcfl_uvel_max              =   5.5416123864355E-02
(PID.TID 0000.0001) %MON advcfl_vvel_max              =   0.0000000000000E+00
(PID.TID 0000.0001) %MON advcfl_wvel_max              =   1.6027136077956E-01
(PID.TID 0000.0001) %MON advcfl_W_hf_max              =   1.6027136077956E-01
(PID.TID 0000.0001) %MON pe_b_mean                    =   1.2443686599537E-10
(PID.TID 0000.0001) %MON ke_max                       =   2.8272352237136E-04
(PID.TID 0000.0001) %MON ke_mean                      =   2.6799031004279E-05
(PID.TID 0000.0001) %MON ke_vol                       =   6.6188141628594E+09
(PID.TID 0000.0001) %MON vort_r_min                   =   0.0000000000000E+00
(PID.TID 0000.0001) %MON vort_r_max                   =   0.0000000000000E+00
(PID.TID 0000.0001) %MON vort_a_mean                  =   0.0000000000000E+00
(PID.TID 0000.0001) %MON vort_a_sd                    =   0.0000000000000E+00
(PID.TID 0000.0001) %MON vort_p_mean                  =   0.0000000000000E+00
(PID.TID 0000.0001) %MON vort_p_sd                    =   0.0000000000000E+00
(PID.TID 0000.0001) %MON surfExpan_theta_mean         =  -1.6996637336801E-12
(PID.TID 0000.0001) %MON surfExpan_salt_mean          =   1.5908873905198E-19
(PID.TID 0000.0001) // =======================================================
(PID.TID 0000.0001) // End MONITOR dynamic field statistics
(PID.TID 0000.0001) // =======================================================
 cg2d: Sum(rhs),rhsMax =  -1.20047201346285E-14  6.83555675228323E-04
(PID.TID 0000.0001)                    cg2d_init_res =    1.11899932591231E-01
(PID.TID 0000.0001)                       cg2d_iters =    58
(PID.TID 0000.0001)                         cg2d_res =    7.60484845282792E-20
 cg2d: Sum(rhs),rhsMax =  -1.61203515813835E-14  6.40200554647756E-04
 cg2d: Sum(rhs),rhsMax =  -1.59217257433841E-14  6.42718766540079E-04
 cg2d: Sum(rhs),rhsMax =  -1.84214622722667E-14  5.94567039314148E-04
 cg2d: Sum(rhs),rhsMax =  -2.72902360431981E-14  5.93006504954449E-04
(PID.TID 0000.0001) // =======================================================
(PID.TID 0000.0001) // Begin MONITOR dynamic field statistics
(PID.TID 0000.0001) // =======================================================
(PID.TID 0000.0001) %MON time_tsnumber                =                   100
(PID.TID 0000.0001) %MON time_secondsf                =   5.0000000000000E+04
(PID.TID 0000.0001) %MON dynstat_eta_max              =   1.0459056776159E-04
(PID.TID 0000.0001) %MON dynstat_eta_min              =  -1.8947746159238E-04
(PID.TID 0000.0001) %MON dynstat_eta_mean             =   6.9202778008306E-17
(PID.TID 0000.0001) %MON dynstat_eta_sd               =   5.1636659228991E-05
(PID.TID 0000.0001) %MON dynstat_eta_del2             =   1.9786477578895E-06
(PID.TID 0000.0001) %MON dynstat_uvel_max             =   2.1913427972176E-02
(PID.TID 0000.0001) %MON dynstat_uvel_min             =  -2.7314510736345E-02
(PID.TID 0000.0001) %MON dynstat_uvel_mean            =  -9.0226732375528E-09
(PID.TID 0000.0001) %MON dynstat_uvel_sd              =   7.6601056343396E-03
(PID.TID 0000.0001) %MON dynstat_uvel_del2            =   3.3602321183535E-04
(PID.TID 0000.0001) %MON dynstat_vvel_max             =   0.0000000000000E+00
(PID.TID 0000.0001) %MON dynstat_vvel_min             =   0.0000000000000E+00
(PID.TID 0000.0001) %MON dynstat_vvel_mean            =   9.0854190328275-164
(PID.TID 0000.0001) %MON dynstat_vvel_sd              =   9.0855024878337-164
(PID.TID 0000.0001) %MON dynstat_vvel_del2            =   9.7463047277132-157
(PID.TID 0000.0001) %MON dynstat_wvel_max             =   4.7189995197283E-03
(PID.TID 0000.0001) %MON dynstat_wvel_min             =  -3.2371964629248E-03
(PID.TID 0000.0001) %MON dynstat_wvel_mean            =   2.0035825253645E-20
(PID.TID 0000.0001) %MON dynstat_wvel_sd              =   1.2791650025327E-03
(PID.TID 0000.0001) %MON dynstat_wvel_del2            =   1.2939743062468E-04
(PID.TID 0000.0001) %MON dynstat_theta_max            =   4.9085322872843E-02
(PID.TID 0000.0001) %MON dynstat_theta_min            =  -4.7754677127157E-02
(PID.TID 0000.0001) %MON dynstat_theta_mean           =   1.4309462769278E-02
(PID.TID 0000.0001) %MON dynstat_theta_sd             =   2.7583333826495E-02
(PID.TID 0000.0001) %MON dynstat_theta_del2           =   1.9066248188513E-04
(PID.TID 0000.0001) %MON dynstat_salt_max             =   3.5000000000000E+01
(PID.TID 0000.0001) %MON dynstat_salt_min             =   0.0000000000000E+00
(PID.TID 0000.0001) %MON dynstat_salt_mean            =   3.3847052152665E+01
(PID.TID 0000.0001) %MON dynstat_salt_sd              =   6.2469101096520E+00
(PID.TID 0000.0001) %MON dynstat_salt_del2            =   5.6726094003241E-01
(PID.TID 0000.0001) %MON advcfl_uvel_max              =   6.2638539658535E-02
(PID.TID 0000.0001) %MON advcfl_vvel_max              =   0.0000000000000E+00
(PID.TID 0000.0001) %MON advcfl_wvel_max              =   2.3594997598641E-01
(PID.TID 0000.0001) %MON advcfl_W_hf_max              =   2.3594997598641E-01
(PID.TID 0000.0001) %MON pe_b_mean                    =   1.2709220642007E-10
(PID.TID 0000.0001) %MON ke_max                       =   2.8794362280809E-04
(PID.TID 0000.0001) %MON ke_mean                      =   2.8372153503842E-05
(PID.TID 0000.0001) %MON ke_vol                       =   6.6188141628594E+09
(PID.TID 0000.0001) %MON vort_r_min                   =   0.0000000000000E+00
(PID.TID 0000.0001) %MON vort_r_max                   =   0.0000000000000E+00
(PID.TID 0000.0001) %MON vort_a_mean                  =   0.0000000000000E+00
(PID.TID 0000.0001) %MON vort_a_sd                    =   0.0000000000000E+00
(PID.TID 0000.0001) %MON vort_p_mean                  =   0.0000000000000E+00
(PID.TID 0000.0001) %MON vort_p_sd                    =   0.0000000000000E+00
(PID.TID 0000.0001) %MON surfExpan_theta_mean         =  -1.7117880348617E-13
(PID.TID 0000.0001) %MON surfExpan_salt_mean          =   1.4879500583510E-18
(PID.TID 0000.0001) // =======================================================
(PID.TID 0000.0001) // End MONITOR dynamic field statistics
(PID.TID 0000.0001) // =======================================================
(PID.TID 0000.0001) %CHECKPOINT       100 ckptA
(PID.TID 0000.0001)   Seconds in section "ALL                    [THE_MODEL_MAIN]":
(PID.TID 0000.0001)           User time:  4.36999989
(PID.TID 0000.0001)         System time:  0.0199999996
(PID.TID 0000.0001)     Wall clock time:  4.39719892
(PID.TID 0000.0001)          No. starts: 1
(PID.TID 0000.0001)           No. stops: 1
(PID.TID 0000.0001)   Seconds in section "INITIALISE_FIXED       [THE_MODEL_MAIN]":
(PID.TID 0000.0001)           User time:  0.0399999991
(PID.TID 0000.0001)         System time:  0.
(PID.TID 0000.0001)     Wall clock time:  0.0391550064
(PID.TID 0000.0001)          No. starts: 1
(PID.TID 0000.0001)           No. stops: 1
(PID.TID 0000.0001)   Seconds in section "THE_MAIN_LOOP          [THE_MODEL_MAIN]":
(PID.TID 0000.0001)           User time:  4.30999991
(PID.TID 0000.0001)         System time:  0.0199999996
(PID.TID 0000.0001)     Wall clock time:  4.34353781
(PID.TID 0000.0001)          No. starts: 1
(PID.TID 0000.0001)           No. stops: 1
(PID.TID 0000.0001)   Seconds in section "INITIALISE_VARIA    [THE_MAIN_LOOP]":
(PID.TID 0000.0001)           User time:  0.
(PID.TID 0000.0001)         System time:  0.00999999978
(PID.TID 0000.0001)     Wall clock time:  0.0134649277
(PID.TID 0000.0001)          No. starts: 1
(PID.TID 0000.0001)           No. stops: 1
(PID.TID 0000.0001)   Seconds in section "MONITOR             [THE_MAIN_LOOP]":
(PID.TID 0000.0001)           User time:  0.0100000016
(PID.TID 0000.0001)         System time:  0.
(PID.TID 0000.0001)     Wall clock time:  0.00446295738
(PID.TID 0000.0001)          No. starts: 1
(PID.TID 0000.0001)           No. stops: 1
(PID.TID 0000.0001)   Seconds in section "DO_THE_MODEL_IO     [THE_MAIN_LOOP]":
(PID.TID 0000.0001)           User time:  0.
(PID.TID 0000.0001)         System time:  0.
(PID.TID 0000.0001)     Wall clock time:  0.00300312042
(PID.TID 0000.0001)          No. starts: 1
(PID.TID 0000.0001)           No. stops: 1
(PID.TID 0000.0001)   Seconds in section "MAIN LOOP           [THE_MAIN_LOOP]":
(PID.TID 0000.0001)           User time:  4.2999999
(PID.TID 0000.0001)         System time:  0.00999999978
(PID.TID 0000.0001)     Wall clock time:  4.32249403
(PID.TID 0000.0001)          No. starts: 1
(PID.TID 0000.0001)           No. stops: 1
(PID.TID 0000.0001)   Seconds in section "FORWARD_STEP        [THE_MAIN_LOOP]":
(PID.TID 0000.0001)           User time:  4.28999991
(PID.TID 0000.0001)         System time:  0.00999999978
(PID.TID 0000.0001)     Wall clock time:  4.32040763
(PID.TID 0000.0001)          No. starts: 100
(PID.TID 0000.0001)           No. stops: 100
(PID.TID 0000.0001)   Seconds in section "UPDATE_ETAH        [FORWARD_STEP]":
(PID.TID 0000.0001)           User time:  0.
(PID.TID 0000.0001)         System time:  0.
(PID.TID 0000.0001)     Wall clock time:  0.00652933121
(PID.TID 0000.0001)          No. starts: 100
(PID.TID 0000.0001)           No. stops: 100
(PID.TID 0000.0001)   Seconds in section "CALC_SURF_DR      [FORWARD_STEP]":
(PID.TID 0000.0001)           User time:  0.
(PID.TID 0000.0001)         System time:  0.
(PID.TID 0000.0001)     Wall clock time:  0.017980814
(PID.TID 0000.0001)          No. starts: 100
(PID.TID 0000.0001)           No. stops: 100
(PID.TID 0000.0001)   Seconds in section "EXTERNAL_FIELDS_LOAD[FORWARD_STEP]":
(PID.TID 0000.0001)           User time:  0.
(PID.TID 0000.0001)         System time:  0.
(PID.TID 0000.0001)     Wall clock time:  0.0020647049
(PID.TID 0000.0001)          No. starts: 100
(PID.TID 0000.0001)           No. stops: 100
(PID.TID 0000.0001)   Seconds in section "THERMODYNAMICS      [FORWARD_STEP]":
(PID.TID 0000.0001)           User time:  1.2100009
(PID.TID 0000.0001)         System time:  0.00999999978
(PID.TID 0000.0001)     Wall clock time:  1.27105689
(PID.TID 0000.0001)          No. starts: 100
(PID.TID 0000.0001)           No. stops: 100
(PID.TID 0000.0001)   Seconds in section "BLOCKING_EXCHANGES  [FORWARD_STEP]":
(PID.TID 0000.0001)           User time:  0.310000017
(PID.TID 0000.0001)         System time:  0.
(PID.TID 0000.0001)     Wall clock time:  0.31602335
(PID.TID 0000.0001)          No. starts: 200
(PID.TID 0000.0001)           No. stops: 200
(PID.TID 0000.0001)   Seconds in section "DYNAMICS            [FORWARD_STEP]":
(PID.TID 0000.0001)           User time:  1.76999924
(PID.TID 0000.0001)         System time:  0.
(PID.TID 0000.0001)     Wall clock time:  1.75780439
(PID.TID 0000.0001)          No. starts: 100
(PID.TID 0000.0001)           No. stops: 100
(PID.TID 0000.0001)   Seconds in section "UPDATE_SURF_DR     [FORWARD_STEP]":
(PID.TID 0000.0001)           User time:  0.0199999809
(PID.TID 0000.0001)         System time:  0.
(PID.TID 0000.0001)     Wall clock time:  0.0130870342
(PID.TID 0000.0001)          No. starts: 100
(PID.TID 0000.0001)           No. stops: 100
(PID.TID 0000.0001)   Seconds in section "UPDATE_CG2D        [FORWARD_STEP]":
(PID.TID 0000.0001)           User time:  0.0499999821
(PID.TID 0000.0001)         System time:  0.
(PID.TID 0000.0001)     Wall clock time:  0.0332117081
(PID.TID 0000.0001)          No. starts: 100
(PID.TID 0000.0001)           No. stops: 100
(PID.TID 0000.0001)   Seconds in section "SOLVE_FOR_PRESSURE  [FORWARD_STEP]":
(PID.TID 0000.0001)           User time:  0.580000192
(PID.TID 0000.0001)         System time:  0.
(PID.TID 0000.0001)     Wall clock time:  0.572075844
(PID.TID 0000.0001)          No. starts: 100
(PID.TID 0000.0001)           No. stops: 100
(PID.TID 0000.0001)   Seconds in section "THE_CORRECTION_STEP [FORWARD_STEP]":
(PID.TID 0000.0001)           User time:  0.219999924
(PID.TID 0000.0001)         System time:  0.
(PID.TID 0000.0001)     Wall clock time:  0.21682024
(PID.TID 0000.0001)          No. starts: 100
(PID.TID 0000.0001)           No. stops: 100
(PID.TID 0000.0001)   Seconds in section "MONITOR             [FORWARD_STEP]":
(PID.TID 0000.0001)           User time:  0.099999696
(PID.TID 0000.0001)         System time:  0.
(PID.TID 0000.0001)     Wall clock time:  0.0740880966
(PID.TID 0000.0001)          No. starts: 100
(PID.TID 0000.0001)           No. stops: 100
(PID.TID 0000.0001)   Seconds in section "DO_THE_MODEL_IO     [FORWARD_STEP]":
(PID.TID 0000.0001)           User time:  0.
(PID.TID 0000.0001)         System time:  0.
(PID.TID 0000.0001)     Wall clock time:  0.0057554245
(PID.TID 0000.0001)          No. starts: 100
(PID.TID 0000.0001)           No. stops: 100
(PID.TID 0000.0001)   Seconds in section "WRITE_CHECKPOINT    [FORWARD_STEP]":
(PID.TID 0000.0001)           User time:  0.
(PID.TID 0000.0001)         System time:  0.
(PID.TID 0000.0001)     Wall clock time:  0.00214457512
(PID.TID 0000.0001)          No. starts: 100
(PID.TID 0000.0001)           No. stops: 100
(PID.TID 0000.0001)   Seconds in section "WRITE_CHECKPOINT       [THE_MODEL_MAIN]":
(PID.TID 0000.0001)           User time:  0.0199999809
(PID.TID 0000.0001)         System time:  0.
(PID.TID 0000.0001)     Wall clock time:  0.014400959
(PID.TID 0000.0001)          No. starts: 1
(PID.TID 0000.0001)           No. stops: 1
(PID.TID 0000.0001) // ======================================================
(PID.TID 0000.0001) // Tile <-> Tile communication statistics
(PID.TID 0000.0001) // ======================================================
(PID.TID 0000.0001) // o Tile number: 000001
(PID.TID 0000.0001) //         No. X exchanges =              0
(PID.TID 0000.0001) //            Max. X spins =              0
(PID.TID 0000.0001) //            Min. X spins =     1000000000
(PID.TID 0000.0001) //          Total. X spins =              0
(PID.TID 0000.0001) //            Avg. X spins =       0.00E+00
(PID.TID 0000.0001) //         No. Y exchanges =              0
(PID.TID 0000.0001) //            Max. Y spins =              0
(PID.TID 0000.0001) //            Min. Y spins =     1000000000
(PID.TID 0000.0001) //          Total. Y spins =              0
(PID.TID 0000.0001) //            Avg. Y spins =       0.00E+00
(PID.TID 0000.0001) // o Tile number: 000002
(PID.TID 0000.0001) //         No. X exchanges =              0
(PID.TID 0000.0001) //            Max. X spins =              0
(PID.TID 0000.0001) //            Min. X spins =     1000000000
(PID.TID 0000.0001) //          Total. X spins =              0
(PID.TID 0000.0001) //            Avg. X spins =       0.00E+00
(PID.TID 0000.0001) //         No. Y exchanges =              0
(PID.TID 0000.0001) //            Max. Y spins =              0
(PID.TID 0000.0001) //            Min. Y spins =     1000000000
(PID.TID 0000.0001) //          Total. Y spins =              0
(PID.TID 0000.0001) //            Avg. Y spins =       0.00E+00
(PID.TID 0000.0001) // o Thread number: 000001
(PID.TID 0000.0001) //            No. barriers =          78810
(PID.TID 0000.0001) //      Max. barrier spins =              1
(PID.TID 0000.0001) //      Min. barrier spins =              1
(PID.TID 0000.0001) //     Total barrier spins =          78810
(PID.TID 0000.0001) //      Avg. barrier spins =       1.00E+00
