(PID.TID 0000.0001) 
(PID.TID 0000.0001) // ======================================================
(PID.TID 0000.0001) //                      MITgcm UV
(PID.TID 0000.0001) //                      =========
(PID.TID 0000.0001) // ======================================================
(PID.TID 0000.0001) // execution environment starting up...
(PID.TID 0000.0001) 
(PID.TID 0000.0001) // MITgcmUV version:  checkpoint59c
(PID.TID 0000.0001) // Build user:        jscott
(PID.TID 0000.0001) // Build host:        svante3
(PID.TID 0000.0001) // Build date:        Wed Jun 13 15:04:49 EDT 2007
(PID.TID 0000.0001) 
(PID.TID 0000.0001) // =======================================================
(PID.TID 0000.0001) // Execution Environment parameter file "eedata"
(PID.TID 0000.0001) // =======================================================
(PID.TID 0000.0001) ># Example "eedata" file
(PID.TID 0000.0001) ># Lines beginning "#" are comments
(PID.TID 0000.0001) ># nTx - No. threads per process in X
(PID.TID 0000.0001) ># nTy - No. threads per process in Y
(PID.TID 0000.0001) > &EEPARMS
(PID.TID 0000.0001) > useCoupler=.TRUE.,
(PID.TID 0000.0001) > nTx=1,
(PID.TID 0000.0001) > nTy=1,
(PID.TID 0000.0001) > &
(PID.TID 0000.0001) ># Note: Some systems use & as the
(PID.TID 0000.0001) ># namelist terminator. Other systems
(PID.TID 0000.0001) ># use a / character (as shown here).
(PID.TID 0000.0001) 
(PID.TID 0000.0001) // =======================================================
(PID.TID 0000.0001) // Computational Grid Specification ( see files "SIZE.h" )
(PID.TID 0000.0001) //                                  ( and "eedata"       )
(PID.TID 0000.0001) // =======================================================
(PID.TID 0000.0001)      nPx =    1 ; /* No. processes in X */
(PID.TID 0000.0001)      nPy =    1 ; /* No. processes in Y */
(PID.TID 0000.0001)      nSx =    1 ; /* No. tiles in X per process */
(PID.TID 0000.0001)      nSy =    1 ; /* No. tiles in Y per process */
(PID.TID 0000.0001)      sNx =   90 ; /* Tile size in X */
(PID.TID 0000.0001)      sNy =   44 ; /* Tile size in Y */
(PID.TID 0000.0001)      OLx =    2 ; /* Tile overlap distance in X */
(PID.TID 0000.0001)      OLy =    2 ; /* Tile overlap distance in Y */
(PID.TID 0000.0001)      nTx =    1 ; /* No. threads in X per process */
(PID.TID 0000.0001)      nTy =    1 ; /* No. threads in Y per process */
(PID.TID 0000.0001)       Nr =   15 ; /* No. levels in the vertical   */
(PID.TID 0000.0001)       nX =   90 ; /* Total domain size in X ( = nPx*nSx*sNx ) */
(PID.TID 0000.0001)       nY =   44 ; /* Total domain size in Y ( = nPy*nSy*sNy ) */
(PID.TID 0000.0001)   nTiles =    1 ; /* Total no. tiles per process ( = nSx*nSy ) */
(PID.TID 0000.0001)   nProcs =    1 ; /* Total no. processes ( = nPx*nPy ) */
(PID.TID 0000.0001) nThreads =    1 ; /* Total no. threads per process ( = nTx*nTy ) */
(PID.TID 0000.0001) usingMPI =    F ; /* Flag used to control whether MPI is in use */
(PID.TID 0000.0001)                   /*  note: To execute a program with MPI calls */
(PID.TID 0000.0001)                   /*  it must be launched appropriately e.g     */
(PID.TID 0000.0001)                   /*  "mpirun -np 64 ......"                    */
(PID.TID 0000.0001) useCoupler=   T ; /* Flag used to control communications with */
(PID.TID 0000.0001)                   /*  other model components, through a coupler */
(PID.TID 0000.0001) 
(PID.TID 0000.0001) ======= Starting MPI parallel Run =========
(PID.TID 0000.0001)  My Processor Name =                                                             c031
(PID.TID 0000.0001)  Located at (  0,  0) on processor grid (0:  0,0:  0)
(PID.TID 0000.0001)  Origin at  (   1,   1) on global grid (1:  90,1:  44)
(PID.TID 0000.0001)  North neighbor = processor 0000
(PID.TID 0000.0001)  South neighbor = processor 0000
(PID.TID 0000.0001)   East neighbor = processor 0000
(PID.TID 0000.0001)   West neighbor = processor 0000
(PID.TID 0000.0001) // ======================================================
(PID.TID 0000.0001) // Mapping of tiles to threads
(PID.TID 0000.0001) // ======================================================
(PID.TID 0000.0001) // -o- Thread   1, tiles (   1:   1,   1:   1)
(PID.TID 0000.0001) 
(PID.TID 0000.0001) // ======================================================
(PID.TID 0000.0001) // Tile <-> Tile connectvity table
(PID.TID 0000.0001) // ======================================================
(PID.TID 0000.0001) // Tile number: 000001 (process no. = 000000)
(PID.TID 0000.0001) //        WEST: Tile = 000001, Process = 000000, Comm = put
(PID.TID 0000.0001) //                bi = 000001, bj = 000001
(PID.TID 0000.0001) //        EAST: Tile = 000001, Process = 000000, Comm = put
(PID.TID 0000.0001) //                bi = 000001, bj = 000001
(PID.TID 0000.0001) //       SOUTH: Tile = 000001, Process = 000000, Comm = put
(PID.TID 0000.0001) //                bi = 000001, bj = 000001
(PID.TID 0000.0001) //       NORTH: Tile = 000001, Process = 000000, Comm = put
(PID.TID 0000.0001) //                bi = 000001, bj = 000001
(PID.TID 0000.0001) 
(PID.TID 0000.0001) // =======================================================
(PID.TID 0000.0001) // Model parameter file "data"
(PID.TID 0000.0001) // =======================================================
(PID.TID 0000.0001) ># ====================
(PID.TID 0000.0001) ># | Model parameters |
(PID.TID 0000.0001) ># ====================
(PID.TID 0000.0001) >#
(PID.TID 0000.0001) ># Continuous equation parameters
(PID.TID 0000.0001) > &PARM01
(PID.TID 0000.0001) > tRef = 15*20.,
(PID.TID 0000.0001) > sRef = 15*35.,
(PID.TID 0000.0001) > viscAz=5.E-3,
(PID.TID 0000.0001) > viscAh=2.5E5,
(PID.TID 0000.0001) > diffKhT=0.E3,
(PID.TID 0000.0001) > diffKzT=2.E-5,
(PID.TID 0000.0001) > diffKhS=0.E3,
(PID.TID 0000.0001) > diffKzS=2.E-5,
(PID.TID 0000.0001) > gravity=9.81,
(PID.TID 0000.0001) > rhonil=1035.,
(PID.TID 0000.0001) > rhoConstFresh=1000.,
(PID.TID 0000.0001) > rigidLid=.FALSE.,
(PID.TID 0000.0001) > implicitFreeSurface=.TRUE.,
(PID.TID 0000.0001) > eosType = 'JMD95Z',
(PID.TID 0000.0001) > ivdc_kappa=100.,
(PID.TID 0000.0001) > exactConserv=.TRUE.,
(PID.TID 0000.0001) > implicitDiffusion=.TRUE.,
(PID.TID 0000.0001) > convertFW2Salt = 35.0,
(PID.TID 0000.0001) ># tempAdvScheme       = 77
(PID.TID 0000.0001) ># saltAdvScheme       = 77
(PID.TID 0000.0001) > staggerTimeStep = .TRUE.,
(PID.TID 0000.0001) > &
(PID.TID 0000.0001) >
(PID.TID 0000.0001) ># Elliptic solver parameters
(PID.TID 0000.0001) > &PARM02
(PID.TID 0000.0001) > cg2dMaxIters=500,
(PID.TID 0000.0001) > cg2dTargetResidual=1.E-17,
(PID.TID 0000.0001) > &
(PID.TID 0000.0001) ># Time stepping parameters
(PID.TID 0000.0001) > &PARM03
(PID.TID 0000.0001) > startTime = 0.,
(PID.TID 0000.0001) > endtime   = 31536000.,
(PID.TID 0000.0001) > deltaTmom = 900.0,
(PID.TID 0000.0001) ># tauCD =     321428.,
(PID.TID 0000.0001) > deltaTtracer=28800.,
(PID.TID 0000.0001) > deltaTClock =28800.,
(PID.TID 0000.0001) > deltaTfreesurf=28800.,
(PID.TID 0000.0001) > abEps = 0.1,
(PID.TID 0000.0001) > forcing_In_AB=.FALSE.,
(PID.TID 0000.0001) >#cAdjFreq = -1,
(PID.TID 0000.0001) > pChkptFreq= 31536000.,
(PID.TID 0000.0001) > chkptFreq=  31536000.,
(PID.TID 0000.0001) > dumpFreq=  0.,
(PID.TID 0000.0001) > taveFreq=  31536000.,
(PID.TID 0000.0001) > tauThetaClimRelax = 0.d0,
(PID.TID 0000.0001) > tauSaltClimRelax = 0.d0,
(PID.TID 0000.0001) > monitorFreq= 31536000.,
(PID.TID 0000.0001) > periodicExternalForcing=.FALSE.,
(PID.TID 0000.0001) > &
(PID.TID 0000.0001) >
(PID.TID 0000.0001) ># Gridding parameters
(PID.TID 0000.0001) > &PARM04
(PID.TID 0000.0001) > usingSphericalPolarGrid=.TRUE.,
(PID.TID 0000.0001) > delZ= 50., 70., 100., 140., 190.,
(PID.TID 0000.0001) >       240., 290., 340., 390., 440.,
(PID.TID 0000.0001) >       490., 540., 590., 640., 690.,
(PID.TID 0000.0001) > phiMin=-90.,
(PID.TID 0000.0001) > delY=6.,42*4.,6.
(PID.TID 0000.0001) > delX=90*4.,
(PID.TID 0000.0001) > &
(PID.TID 0000.0001) >
(PID.TID 0000.0001) ># Input datasets
(PID.TID 0000.0001) > &PARM05
(PID.TID 0000.0001) > bathyFile=      'bathy_90x44x15.bin',
(PID.TID 0000.0001) > hydrogThetaFile='templev_90x44x15.bin',
(PID.TID 0000.0001) > hydrogSaltFile= 'saltlev_90x44x15.bin',
(PID.TID 0000.0001) > zonalWindFile=  ' ',
(PID.TID 0000.0001) > meridWindFile=  ' ',
(PID.TID 0000.0001) > thetaClimFile=  ' ',
(PID.TID 0000.0001) > saltClimFile=   ' ',
(PID.TID 0000.0001) > surfQFile=      ' ',
(PID.TID 0000.0001) > EmPmRFile=      ' ',
(PID.TID 0000.0001) > &
(PID.TID 0000.0001) >
(PID.TID 0000.0001) 
(PID.TID 0000.0001) S/R INI_PARMS ; starts to read PARM01
(PID.TID 0000.0001) S/R INI_PARMS ; read PARM01 : OK
(PID.TID 0000.0001) S/R INI_PARMS ; starts to read PARM02
(PID.TID 0000.0001) S/R INI_PARMS ; read PARM02 : OK
(PID.TID 0000.0001) S/R INI_PARMS ; starts to read PARM03
(PID.TID 0000.0001) S/R INI_PARMS ; read PARM03 : OK
(PID.TID 0000.0001) S/R INI_PARMS ; starts to read PARM04
(PID.TID 0000.0001) S/R INI_PARMS ; read PARM04 : OK
(PID.TID 0000.0001) S/R INI_PARMS ; starts to read PARM05
(PID.TID 0000.0001) S/R INI_PARMS ; read PARM05 : OK
(PID.TID 0000.0001)  PACKAGES_BOOT: opening data.pkg
(PID.TID 0000.0001)  OPEN_COPY_DATA_FILE: opening file data.pkg
(PID.TID 0000.0001) // =======================================================
(PID.TID 0000.0001) // Parameter file "data.pkg"
(PID.TID 0000.0001) // =======================================================
(PID.TID 0000.0001) ># Packages
(PID.TID 0000.0001) > &PACKAGES
(PID.TID 0000.0001) ># useATM2D=.TRUE.,
(PID.TID 0000.0001) > useGMRedi=.TRUE.,
(PID.TID 0000.0001) > useZONAL_FILT=.TRUE.,
(PID.TID 0000.0001) > usePTRACERS=.FALSE.,
(PID.TID 0000.0001) ># useThSIce=.TRUE.,
(PID.TID 0000.0001) > &
(PID.TID 0000.0001) >
(PID.TID 0000.0001) 
(PID.TID 0000.0001)  PACKAGES_BOOT: finished reading data.pkg
(PID.TID 0000.0001)  GM_READPARMS: opening data.gmredi
(PID.TID 0000.0001)  OPEN_COPY_DATA_FILE: opening file data.gmredi
(PID.TID 0000.0001) // =======================================================
(PID.TID 0000.0001) // Parameter file "data.gmredi"
(PID.TID 0000.0001) // =======================================================
(PID.TID 0000.0001) ># from MOM
(PID.TID 0000.0001) ># GM_background_K: 	isopycnal diffusion coefficien
(PID.TID 0000.0001) ># GM_maxSlope:		max slope of isopycnals
(PID.TID 0000.0001) ># GM_Scrit:		transition for scaling diffusion coefficient
(PID.TID 0000.0001) ># GM_Sd:		half width scaling for diffusion coefficient
(PID.TID 0000.0001) ># real background diff:	horizontal diffusion
(PID.TID 0000.0001) >
(PID.TID 0000.0001) ># ifdef GM_VISBECK_VARIABLE_K, include following in GM_PARM01
(PID.TID 0000.0001) ># GM_Visbeck_alpha   = 0.,
(PID.TID 0000.0001) ># GM_Visbeck_length  = 2.e+5,
(PID.TID 0000.0001) ># GM_Visbeck_depth   = 1.e+3,
(PID.TID 0000.0001) ># GM_Visbeck_maxval_K= 2.5e+3,
(PID.TID 0000.0001) >
(PID.TID 0000.0001) > &GM_PARM01
(PID.TID 0000.0001) >  GM_background_K    = 1.e+3,
(PID.TID 0000.0001) >  GM_isopycK         = 1.5e+3,
(PID.TID 0000.0001) >  GM_taper_scheme    = 'gkw91',
(PID.TID 0000.0001) >  GM_maxSlope        = 1.e-2,
(PID.TID 0000.0001) >  GM_Kmin_horiz      = 100.,
(PID.TID 0000.0001) >  GM_Scrit           = 4.e-3,
(PID.TID 0000.0001) >  GM_Sd              = 1.e-3,
(PID.TID 0000.0001) > &end
(PID.TID 0000.0001) >
(PID.TID 0000.0001) >
(PID.TID 0000.0001) 
(PID.TID 0000.0001)  GM_READPARMS: finished reading data.gmredi
(PID.TID 0000.0001)  ZONAL_FILT_READPARMS: opening data.zonfilt
(PID.TID 0000.0001)  OPEN_COPY_DATA_FILE: opening file data.zonfilt
(PID.TID 0000.0001) // =======================================================
(PID.TID 0000.0001) // Parameter file "data.zonfilt"
(PID.TID 0000.0001) // =======================================================
(PID.TID 0000.0001) > &ZONFILT_PARM01
(PID.TID 0000.0001) >      zonal_filt_uvStar   = .TRUE.
(PID.TID 0000.0001) >      zonal_filt_TrStagg  = .TRUE.
(PID.TID 0000.0001) >      zonal_filt_lat      = 82.
(PID.TID 0000.0001) >      zonal_filt_sinpow   = 2
(PID.TID 0000.0001) >      zonal_filt_cospow   = 2
(PID.TID 0000.0001) >      zonal_filt_mode2dx  = 0
(PID.TID 0000.0001) > &end
(PID.TID 0000.0001) >
(PID.TID 0000.0001) 
(PID.TID 0000.0001)  ZONAL_FILT_READPARMS: finished reading data.zonfilt
(PID.TID 0000.0001)  CPL_READPARMS: opening data.cpl
(PID.TID 0000.0001)  OPEN_COPY_DATA_FILE: opening file data.cpl
(PID.TID 0000.0001) // =======================================================
(PID.TID 0000.0001) // Parameter file "data.cpl"
(PID.TID 0000.0001) // =======================================================
(PID.TID 0000.0001) ># Coupling package parameters, OCN component:
(PID.TID 0000.0001) ># cpl_earlyExpImpCall :: call coupler early in the time stepping call sequence
(PID.TID 0000.0001) >#     useImportHFlx :: True => use the Imported HeatFlux from couler
(PID.TID 0000.0001) >#     useImportFW   :: True => use the Imported Fresh Water flux fr cpl
(PID.TID 0000.0001) >#     useImportTau  :: True => use the Imported Wind-Stress from couler
(PID.TID 0000.0001) >#     useImportSLP  :: True => use the Imported Sea-level Atmos. Pressure
(PID.TID 0000.0001) >#     useImportSIce :: True => use the Imported Sea-Ice loading
(PID.TID 0000.0001) >#     cpl_taveFreq  :: Frequency^-1 for time-Aver. output (s)
(PID.TID 0000.0001) > &CPL_OCN_PARAM
(PID.TID 0000.0001) > cpl_earlyExpImpCall=.TRUE.,
(PID.TID 0000.0001) ># useImportHFlx=.FALSE.,
(PID.TID 0000.0001) ># useImportFW  =.FALSE.,
(PID.TID 0000.0001) ># useImportTau =.FALSE.,
(PID.TID 0000.0001) >  useImportSLP =.FALSE.,
(PID.TID 0000.0001) >  useImportSIce=.FALSE.,
(PID.TID 0000.0001) ># cpl_taveFreq=2592000.,
(PID.TID 0000.0001) >#  cpl_taveFreq=18000.,
(PID.TID 0000.0001) > &
(PID.TID 0000.0001) >
(PID.TID 0000.0001) 
(PID.TID 0000.0001)  CPL_READPARMS: finished reading data.cpl
(PID.TID 0000.0001) 
(PID.TID 0000.0001) // ===================================
(PID.TID 0000.0001) // Coupling package parameters :
(PID.TID 0000.0001) // ===================================
(PID.TID 0000.0001) cpl_earlyExpImpCall= /* call coupler early in the time-stepping */
(PID.TID 0000.0001)                   T
(PID.TID 0000.0001)     ;
(PID.TID 0000.0001) useImportHFlx= /* use Imported Heat-Flx fr Coupler on/off flag */
(PID.TID 0000.0001)                   T
(PID.TID 0000.0001)     ;
(PID.TID 0000.0001) useImportFW  = /* use Imported Fresh-Water fr Cpl. on/off flag */
(PID.TID 0000.0001)                   T
(PID.TID 0000.0001)     ;
(PID.TID 0000.0001) useImportTau = /* use Imported Wind-Stress fr Cpl. on/off flag */
(PID.TID 0000.0001)                   T
(PID.TID 0000.0001)     ;
(PID.TID 0000.0001) useImportSLP = /* use Imported Sea-level Atm Press on/off flag */
(PID.TID 0000.0001)                   F
(PID.TID 0000.0001)     ;
(PID.TID 0000.0001) useImportSIce= /* use Imported Sea-Ice loading on/off flag */
(PID.TID 0000.0001)                   F
(PID.TID 0000.0001)     ;
(PID.TID 0000.0001) cpl_taveFreq = /* Frequency^-1 for time-Aver. output (s) */
(PID.TID 0000.0001)                 3.153600000000000E+07
(PID.TID 0000.0001)     ;
(PID.TID 0000.0001) cpl_timeave_mnc = /* write TimeAv to MNC file on/off flag */
(PID.TID 0000.0001)                   F
(PID.TID 0000.0001)     ;
(PID.TID 0000.0001) cpl_timeave_mdsio = /* write TimeAv to MDSIO file on/off flag */
(PID.TID 0000.0001)                   T
(PID.TID 0000.0001)     ;
(PID.TID 0000.0001) SET_PARMS: done
(PID.TID 0000.0001) Enter INI_VERTICAL_GRID: setInterFDr=    T ; setCenterDr=    F
(PID.TID 0000.0001) %MON XC_max                       =   3.5800000000000E+02
(PID.TID 0000.0001) %MON XC_min                       =   2.0000000000000E+00
(PID.TID 0000.0001) %MON XC_mean                      =   1.8000000000000E+02
(PID.TID 0000.0001) %MON XC_sd                        =   1.0391663325314E+02
(PID.TID 0000.0001) %MON XG_max                       =   3.5600000000000E+02
(PID.TID 0000.0001) %MON XG_min                       =   4.0000000000000E+00
(PID.TID 0000.0001) %MON XG_mean                      =   1.8000000000000E+02
(PID.TID 0000.0001) %MON XG_sd                        =   1.0276186062932E+02
(PID.TID 0000.0001) %MON DXC_max                      =   4.4443898815675E+05
(PID.TID 0000.0001) %MON DXC_min                      =   2.3274317522213E+04
(PID.TID 0000.0001) %MON DXC_mean                     =   2.8907570436573E+05
(PID.TID 0000.0001) %MON DXC_sd                       =   1.3246476182196E+05
(PID.TID 0000.0001) %MON DXF_max                      =   4.4443898815675E+05
(PID.TID 0000.0001) %MON DXF_min                      =   2.3274317522213E+04
(PID.TID 0000.0001) %MON DXF_mean                     =   2.8907570436573E+05
(PID.TID 0000.0001) %MON DXF_sd                       =   1.3246476182196E+05
(PID.TID 0000.0001) %MON DXG_max                      =   4.4470989340816E+05
(PID.TID 0000.0001) %MON DXG_min                      =   4.6484841757876E+04
(PID.TID 0000.0001) %MON DXG_mean                     =   2.9561737865583E+05
(PID.TID 0000.0001) %MON DXG_sd                       =   1.2681418128397E+05
(PID.TID 0000.0001) %MON DXV_max                      =   4.4470989340816E+05
(PID.TID 0000.0001) %MON DXV_min                      =   4.6484841757876E+04
(PID.TID 0000.0001) %MON DXV_mean                     =   2.9561737865583E+05
(PID.TID 0000.0001) %MON DXV_sd                       =   1.2681418128397E+05
(PID.TID 0000.0001) %MON YC_max                       =   8.7000000000000E+01
(PID.TID 0000.0001) %MON YC_min                       =  -8.7000000000000E+01
(PID.TID 0000.0001) %MON YC_mean                      =   0.0000000000000E+00
(PID.TID 0000.0001) %MON YC_sd                        =   5.0871049098320E+01
(PID.TID 0000.0001) %MON YG_max                       =   8.4000000000000E+01
(PID.TID 0000.0001) %MON YG_min                       =  -9.0000000000000E+01
(PID.TID 0000.0001) %MON YG_mean                      =  -2.0930232558140E+00
(PID.TID 0000.0001) %MON YG_sd                        =   5.1458637240738E+01
(PID.TID 0000.0001) %MON DYC_max                      =   6.6706484011223E+05
(PID.TID 0000.0001) %MON DYC_min                      =   4.4470989340816E+05
(PID.TID 0000.0001) %MON DYC_mean                     =   4.5481693644013E+05
(PID.TID 0000.0001) %MON DYC_sd                       =   3.9791468208490E+04
(PID.TID 0000.0001) %MON DYF_max                      =   6.6706484011223E+05
(PID.TID 0000.0001) %MON DYF_min                      =   4.4470989340816E+05
(PID.TID 0000.0001) %MON DYF_mean                     =   4.5481693644013E+05
(PID.TID 0000.0001) %MON DYF_sd                       =   4.6316289746331E+04
(PID.TID 0000.0001) %MON DYG_max                      =   6.6706484011223E+05
(PID.TID 0000.0001) %MON DYG_min                      =   4.4470989340816E+05
(PID.TID 0000.0001) %MON DYG_mean                     =   4.5481693644013E+05
(PID.TID 0000.0001) %MON DYG_sd                       =   4.6316289746331E+04
(PID.TID 0000.0001) %MON DYU_max                      =   6.6706484011223E+05
(PID.TID 0000.0001) %MON DYU_min                      =   4.4470989340816E+05
(PID.TID 0000.0001) %MON DYU_mean                     =   4.5481693644013E+05
(PID.TID 0000.0001) %MON DYU_sd                       =   3.9791468208490E+04
(PID.TID 0000.0001) %MON RA_max                       =   1.9760627980089E+11
(PID.TID 0000.0001) %MON RA_min                       =   1.5518385872059E+10
(PID.TID 0000.0001) %MON RA_mean                      =   1.2876372822773E+11
(PID.TID 0000.0001) %MON RA_sd                        =   5.8432887702815E+10
(PID.TID 0000.0001) %MON RAW_max                      =   1.9760627980089E+11
(PID.TID 0000.0001) %MON RAW_min                      =   1.5518385872059E+10
(PID.TID 0000.0001) %MON RAW_mean                     =   1.2876372822773E+11
(PID.TID 0000.0001) %MON RAW_sd                       =   5.8432887702815E+10
(PID.TID 0000.0001) %MON RAS_max                      =   1.9772672958215E+11
(PID.TID 0000.0001) %MON RAS_min                      =   2.3686377820242E+10
(PID.TID 0000.0001) %MON RAS_mean                     =   1.3157766345549E+11
(PID.TID 0000.0001) %MON RAS_sd                       =   5.6111195776214E+10
(PID.TID 0000.0001) %MON RAZ_max                      =   1.9772672958215E+11
(PID.TID 0000.0001) %MON RAZ_min                      =   2.3686377820242E+10
(PID.TID 0000.0001) %MON RAZ_mean                     =   1.3157766345549E+11
(PID.TID 0000.0001) %MON RAZ_sd                       =   5.6111195776214E+10
(PID.TID 0000.0001) %MON AngleCS_max                  =   1.0000000000000E+00
(PID.TID 0000.0001) %MON AngleCS_min                  =   1.0000000000000E+00
(PID.TID 0000.0001) %MON AngleCS_mean                 =   1.0000000000000E+00
(PID.TID 0000.0001) %MON AngleCS_sd                   =   0.0000000000000E+00
(PID.TID 0000.0001) %MON AngleSN_max                  =   0.0000000000000E+00
(PID.TID 0000.0001) %MON AngleSN_min                  =   0.0000000000000E+00
(PID.TID 0000.0001) %MON AngleSN_mean                 =   0.0000000000000E+00
(PID.TID 0000.0001) %MON AngleSN_sd                   =   0.0000000000000E+00
(PID.TID 0000.0001)  MDS_READ_FIELD: opening global file: bathy_90x44x15.bin
(PID.TID 0000.0001) // =======================================================
(PID.TID 0000.0001) // Field Model R_low (ini_masks_etc) at iteration          1
(PID.TID 0000.0001) // CMIN =         -5.200000000000000E+03
(PID.TID 0000.0001) // CMAX =         -5.000000000000000E+01
(PID.TID 0000.0001) // CINT =          1.907407407407407E+02
(PID.TID 0000.0001) // SYMBOLS (CMIN->CMAX): -abcdefghijklmnopqrstuvwxyz+
(PID.TID 0000.0001) //                  0.0: .
(PID.TID 0000.0001) // RANGE I (Lo:Hi:Step):(  -1:  92:   1)
(PID.TID 0000.0001) // RANGE J (Lo:Hi:Step):(  46:  -1:  -1)
(PID.TID 0000.0001) // RANGE K (Lo:Hi:Step):(   1:   1:   1)
(PID.TID 0000.0001) // =======================================================
(PID.TID 0000.0001) K =   1
(PID.TID 0000.0001) //                I=8       I=18      I=28      I=38      I=48      I=58      I=68      I=78      I=88
(PID.TID 0000.0001) // |--J--|101234567|901234567|901234567|901234567|901234567|901234567|901234567|901234567|901234567|9012
(PID.TID 0000.0001) //     46 ..............................................................................................
(PID.TID 0000.0001) //     45 ..............................................................................................
(PID.TID 0000.0001) //     44 mmmmmmmmmmmmmmmmmmmmmmmmmmmmmmmmmmmmmmmmmmmmmmmmmmmmmmmmmmmmmmmmmmmmmmmmmmmmmmmmmmmmmmmmmmmmmm
(PID.TID 0000.0001) //     43 ommroooooorrtttvvvtttttttoomjjjjggggjroommmmmmoomjjjggjjjjjjjjjorrvwwwx................vttommr
(PID.TID 0000.0001) //     42 vmmoty.++zzzzzyzzzyyy++++++.zwvtrrtvwz++zywvvtttoottomgjjjjjrvxyyyyzz....yz............+zzvmmo
(PID.TID 0000.0001) //     41 jjmmotyyyyzzzzz+z+++++.........++++.......+++++zyzzwrggjjjjtz...zzz++zyxxwttwy.........yrmjjmm
(PID.TID 0000.0001) //     40 mjmmmrx...zz+++++++............................+++......tvx.......++.......vvxz.......xttrmjmm
(PID.TID 0000.0001) //     39 mjovy............................................+..........................ywz....wvxy.xtmjov
(PID.TID 0000.0001) //     38 vvwy..........................................tz++.........................yxomr.woootrrtwvvwy
(PID.TID 0000.0001) //     37 z+++.................................zzzy..joggmvz++.zrjjo..................zojjmmmoommtvvz+++
(PID.TID 0000.0001) //     36 ..++.................................zwwy.gggjmjjormjddggjr...................vjggjmjjjorw..++
(PID.TID 0000.0001) //     35 +....................................+wttd----dd---dd--dggjo................+.zvjgdgjggdjw+...
(PID.TID 0000.0001) //     34 jw..................................tyoj---------------ddggmo...............+yxyoddgjmgdddjw..
(PID.TID 0000.0001) //     33 ...................................mmwd-----------------ddgjm.............+tjddmdddgmjg--m....
(PID.TID 0000.0001) //     32 ................................+.rrtm---------------------dd............tgd-----dgmomd-dj....
(PID.TID 0000.0001) //     31 ................................++ztod---d---ddd------------dj...........g--d---dgjjjd-dgg....
(PID.TID 0000.0001) //     30 ................................+ztdgd-------------------ddddgm.......x.td------gjgdd--dm.....
(PID.TID 0000.0001) //     29 ................................ytgddj----------dgd-------dddggmv...ommzv-------gd----dj......
(PID.TID 0000.0001) //     28 .................jo...........+vj---dg-------dd--dddg------dddggmr..owrowmd----dgd----do......
(PID.TID 0000.0001) //     27 ................mgjo...oot...xogj----dg------ddddd----------ddggjj....mmmmjgg--dgd---gjo......
(PID.TID 0000.0001) //     26 ..............rmgggjw.mjjv...tggvd---gd-------------------dddddggjjgjo.wjjjgog-dgd----dm......
(PID.TID 0000.0001) //     25 ...............ggddgr.jjjoy+.tmvtg--dddd--dgg-----d------dddddgggjjgggo.....ymgddgd----j......
(PID.TID 0000.0001) //     24 ..m...........jddgddomgggoy.+xtvjg-ddjggggddd------gd----ddddddgggjjgjomm.....xmgddggdgdd...m.
(PID.TID 0000.0001) //     23 dddm.........mddddjgmdddggt.++..jojddjddgmgddd------gdddddddddgggjjjjomm.......+oddgjgdddddddm
(PID.TID 0000.0001) //     22 dddg........mdddddgggdddddg.+..vtmv..jrmmojddd------ddddddddddgggjjjjmmo.........ojgdd-dggdddg
(PID.TID 0000.0001) //     21 dd--m.......jddjmggjg---d--gv++woggw...jjrmjg-----dd----ddddddgggjgggggj...........j---dggdd--
(PID.TID 0000.0001) //     20 d---g.......mggdjogj--d-d----gjjrvx+++ttmmjjgddddddg----dgdddgggjgdggddd...........g---djgd---
(PID.TID 0000.0001) //     19 d---g.......mmmdgmjg---dd-------v+..+.oggjjmjjmogd-ddddjggdgggjjjgdggdddg.........jd---djgd---
(PID.TID 0000.0001) //     18 d---j......to.jdjjjgd--dd-----mt+......womjjmmorj---ddggjjgggjjjjgggggddgd........rd---djgd---
(PID.TID 0000.0001) //     17 ---gj......mm.gddggjdd-gd---ddv.........troojggo----dddddggggjjjggggggdgdd........jd---dgg---g
(PID.TID 0000.0001) //     16 d--gdr....vggr---dgjgddgd----g..........mjrmjggo------dgdggggjjjjjjgggggdd......wmgd---djgd--g
(PID.TID 0000.0001) //     15 ddg-do....oddmd-ddddggdgjmjd--j.........jjrmjjgg-------dddggggjjjjjjgjgggd.....xmggmgddgjgddg-
(PID.TID 0000.0001) //     14 ggd-ddr.mgj-dmggd-ddgjgjgddd-dm.mmow....ddroorm----------ddggggjjjgggggggg.....mddddgdggjgggd-
(PID.TID 0000.0001) //     13 gd----dggdd-gjjg--ddgmggggdd--------g..jddgrtwrd-----------dddgjjgggjggggm...+o--d--ddgjjggd--
(PID.TID 0000.0001) //     12 ddd-ddddg-dgmjjd--dggjjjjjggdddd-----dwjdddjw.romg---------dddgjjggggggggr..+v------ddgjjgddd-
(PID.TID 0000.0001) //     11 gdddddd---gmmmmgddjmjjjgjjjjgggdddddddjgdddj.trjd--d-------ddggjjgggggggj..++j-------ddgjjgddd
(PID.TID 0000.0001) //     10 jjggggdd-dddggdddgowrjggggjjjjgggggjjgggddgrxvmd--ddddddddddggjjjgddddddj..+zxmggg--dddggjjjgg
(PID.TID 0000.0001) //      9 mmmjgdggd--djgdddddgtoddddggggdddddggjjgdddorg-----dddggjjgggjjggddd---ddo.xtrmgjmojdddddgmmmj
(PID.TID 0000.0001) //      8 gd--------------dddjmrmddgdddddddddddgjjjgd------dddgjjjggggdddddd------ddgjggggjjjjjjddddgd--
(PID.TID 0000.0001) //      7 ----------------ddddgjoggggggggddddddgggjmmjgddggjjjjjjgdddd--d-----ddddddgjmrtmomgggdd-------
(PID.TID 0000.0001) //      6 -djddgddddjdgmo.mmmoooroovywtrttrrt.rrorommmjjjjjjjggddddddddddd-dddddddgjry.xtjddddddddd--djd
(PID.TID 0000.0001) //      5 oooorrmmm..........+......................rromjmggggdddddddggjjjjjjjmmrrty...xtjgggdddddgmoooo
(PID.TID 0000.0001) //      4 ............................................xxwwojgggggjmmmr..wwwx...........xxxwvroortx......
(PID.TID 0000.0001) //      3 ...........................................xwwxxxxxw.........................yyzzxw...........
(PID.TID 0000.0001) //      2 ..............................................................................................
(PID.TID 0000.0001) //      1 ..............................................................................................
(PID.TID 0000.0001) //      0 ..............................................................................................
(PID.TID 0000.0001) //     -1 ..............................................................................................
(PID.TID 0000.0001) // =======================================================
(PID.TID 0000.0001) // END OF FIELD                                          =
(PID.TID 0000.0001) // =======================================================
(PID.TID 0000.0001) 
(PID.TID 0000.0001) // =======================================================
(PID.TID 0000.0001) // Field Model Ro_surf (ini_masks_etc) at iteration          1
(PID.TID 0000.0001) // CMIN =          1.000000000000000E+32
(PID.TID 0000.0001) // CMAX =         -1.000000000000000E+32
(PID.TID 0000.0001) // CINT =          0.000000000000000E+00
(PID.TID 0000.0001) // SYMBOLS (CMIN->CMAX): -abcdefghijklmnopqrstuvwxyz+
(PID.TID 0000.0001) //                  0.0: .
(PID.TID 0000.0001) // RANGE I (Lo:Hi:Step):(  -1:  92:   1)
(PID.TID 0000.0001) // RANGE J (Lo:Hi:Step):(  46:  -1:  -1)
(PID.TID 0000.0001) // RANGE K (Lo:Hi:Step):(   1:   1:   1)
(PID.TID 0000.0001) // =======================================================
(PID.TID 0000.0001) // =======================================================
(PID.TID 0000.0001) // END OF FIELD                                          =
(PID.TID 0000.0001) // =======================================================
(PID.TID 0000.0001) 
(PID.TID 0000.0001) // =======================================================
(PID.TID 0000.0001) // Field hFacC at iteration          1
(PID.TID 0000.0001) // CMIN =          1.000000000000000E+00
(PID.TID 0000.0001) // CMAX =          1.000000000000000E+00
(PID.TID 0000.0001) // CINT =          0.000000000000000E+00
(PID.TID 0000.0001) // SYMBOLS (CMIN->CMAX): -abcdefghijklmnopqrstuvwxyz+
(PID.TID 0000.0001) //                  0.0: .
(PID.TID 0000.0001) // RANGE I (Lo:Hi:Step):(  -1:  92:   1)
(PID.TID 0000.0001) // RANGE J (Lo:Hi:Step):(  46:  -1:  -1)
(PID.TID 0000.0001) // RANGE K (Lo:Hi:Step):(   1:   1:   1)
(PID.TID 0000.0001) // =======================================================
(PID.TID 0000.0001) // =======================================================
(PID.TID 0000.0001) // END OF FIELD                                          =
(PID.TID 0000.0001) // =======================================================
(PID.TID 0000.0001) 
(PID.TID 0000.0001) // =======================================================
(PID.TID 0000.0001) // Field hFacW at iteration          1
(PID.TID 0000.0001) // CMIN =          1.000000000000000E+00
(PID.TID 0000.0001) // CMAX =          1.000000000000000E+00
(PID.TID 0000.0001) // CINT =          0.000000000000000E+00
(PID.TID 0000.0001) // SYMBOLS (CMIN->CMAX): -abcdefghijklmnopqrstuvwxyz+
(PID.TID 0000.0001) //                  0.0: .
(PID.TID 0000.0001) // RANGE I (Lo:Hi:Step):(  -1:  92:   1)
(PID.TID 0000.0001) // RANGE J (Lo:Hi:Step):(  46:  -1:  -1)
(PID.TID 0000.0001) // RANGE K (Lo:Hi:Step):(   1:   1:   1)
(PID.TID 0000.0001) // =======================================================
(PID.TID 0000.0001) // =======================================================
(PID.TID 0000.0001) // END OF FIELD                                          =
(PID.TID 0000.0001) // =======================================================
(PID.TID 0000.0001) 
(PID.TID 0000.0001) // =======================================================
(PID.TID 0000.0001) // Field hFacS at iteration          1
(PID.TID 0000.0001) // CMIN =          1.000000000000000E+00
(PID.TID 0000.0001) // CMAX =          1.000000000000000E+00
(PID.TID 0000.0001) // CINT =          0.000000000000000E+00
(PID.TID 0000.0001) // SYMBOLS (CMIN->CMAX): -abcdefghijklmnopqrstuvwxyz+
(PID.TID 0000.0001) //                  0.0: .
(PID.TID 0000.0001) // RANGE I (Lo:Hi:Step):(  -1:  92:   1)
(PID.TID 0000.0001) // RANGE J (Lo:Hi:Step):(  46:  -1:  -1)
(PID.TID 0000.0001) // RANGE K (Lo:Hi:Step):(   1:   1:   1)
(PID.TID 0000.0001) // =======================================================
(PID.TID 0000.0001) // =======================================================
(PID.TID 0000.0001) // END OF FIELD                                          =
(PID.TID 0000.0001) // =======================================================
(PID.TID 0000.0001) 
(PID.TID 0000.0001) 
(PID.TID 0000.0001) // ===================================
(PID.TID 0000.0001) // GAD parameters :
(PID.TID 0000.0001) // ===================================
(PID.TID 0000.0001) tempAdvScheme =   /* Temp. Horiz.Advection scheme selector */
(PID.TID 0000.0001)                       2
(PID.TID 0000.0001)     ;
(PID.TID 0000.0001) tempVertAdvScheme =   /* Temp. Vert. Advection scheme selector */
(PID.TID 0000.0001)                       2
(PID.TID 0000.0001)     ;
(PID.TID 0000.0001) tempMultiDimAdvec =   /* use Muti-Dim Advec method for Temp */
(PID.TID 0000.0001)                   F
(PID.TID 0000.0001)     ;
(PID.TID 0000.0001) tempSOM_Advection = /* use 2nd Order Moment Advection for Temp */
(PID.TID 0000.0001)                   F
(PID.TID 0000.0001)     ;
(PID.TID 0000.0001) AdamsBashforthGt = /* apply Adams-Bashforth extrapolation on Gt */
(PID.TID 0000.0001)                   T
(PID.TID 0000.0001)     ;
(PID.TID 0000.0001) AdamsBashforth_T = /* apply Adams-Bashforth extrapolation on Temp */
(PID.TID 0000.0001)                   F
(PID.TID 0000.0001)     ;
(PID.TID 0000.0001) saltAdvScheme =   /* Salt. Horiz.advection scheme selector */
(PID.TID 0000.0001)                       2
(PID.TID 0000.0001)     ;
(PID.TID 0000.0001) saltVertAdvScheme =   /* Salt. Vert. Advection scheme selector */
(PID.TID 0000.0001)                       2
(PID.TID 0000.0001)     ;
(PID.TID 0000.0001) saltMultiDimAdvec =   /* use Muti-Dim Advec method for Salt */
(PID.TID 0000.0001)                   F
(PID.TID 0000.0001)     ;
(PID.TID 0000.0001) saltSOM_Advection = /* use 2nd Order Moment Advection for Salt */
(PID.TID 0000.0001)                   F
(PID.TID 0000.0001)     ;
(PID.TID 0000.0001) AdamsBashforthGs = /* apply Adams-Bashforth extrapolation on Gs */
(PID.TID 0000.0001)                   T
(PID.TID 0000.0001)     ;
(PID.TID 0000.0001) AdamsBashforth_S = /* apply Adams-Bashforth extrapolation on Salt */
(PID.TID 0000.0001)                   F
(PID.TID 0000.0001)     ;
(PID.TID 0000.0001) // ===================================
(PID.TID 0000.0001) GAD_CHECK: #define ALLOW_GENERIC_ADVDIFF
(PID.TID 0000.0001) GMREDI_CHECK: #define GMREDI
(PID.TID 0000.0001) GM_AdvForm =  /* if FALSE => use SkewFlux Form */
(PID.TID 0000.0001)                   F
(PID.TID 0000.0001)     ;
(PID.TID 0000.0001) GM_AdvSeparate = /* Calc Bolus & Euler Adv. separately */
(PID.TID 0000.0001)                   F
(PID.TID 0000.0001)     ;
(PID.TID 0000.0001) GM_ExtraDiag =  /* Tensor Extra Diag (line 1&2) non 0 */
(PID.TID 0000.0001)                   T
(PID.TID 0000.0001)     ;
(PID.TID 0000.0001) GM_isopycK =   /* Background Isopyc. Diffusivity ( m^2/s ) */
(PID.TID 0000.0001)                 1.500000000000000E+03
(PID.TID 0000.0001)     ;
(PID.TID 0000.0001)  GM_skewflx*K =   /* Background GM_SkewFlx Diffusivity ( m^2/s ) */
(PID.TID 0000.0001)                 1.000000000000000E+03
(PID.TID 0000.0001)     ;
(PID.TID 0000.0001)  GM_advec*K =   /* Backg. GM-Advec(=Bolus) Diffusivity ( m^2/s ) */
(PID.TID 0000.0001)                 0.000000000000000E+00
(PID.TID 0000.0001)     ;
(PID.TID 0000.0001)  GM_Visbeck_alpha =   /* Visbeck alpha coeff. ( ) */
(PID.TID 0000.0001)                 0.000000000000000E+00
(PID.TID 0000.0001)     ;
(PID.TID 0000.0001)  Tapering/Cliping : gkw91
(PID.TID 0000.0001)  GM_Small_Number =  /* epsilon used in slope calc */
(PID.TID 0000.0001)                 9.999999999999998E-13
(PID.TID 0000.0001)     ;
(PID.TID 0000.0001)  GM_slopeSqCutoff =  /* Slope^2 cut-off value */
(PID.TID 0000.0001)                 1.000000000000000E+48
(PID.TID 0000.0001)     ;
(PID.TID 0000.0001) %MON fCori_max                    =   1.4564259830290E-04
(PID.TID 0000.0001) %MON fCori_min                    =  -1.4564259830290E-04
(PID.TID 0000.0001) %MON fCori_mean                   =  -3.9562427758625E-21
(PID.TID 0000.0001) %MON fCori_sd                     =   1.0195766070155E-04
(PID.TID 0000.0001) %MON fCoriG_max                   =   1.4504353002754E-04
(PID.TID 0000.0001) %MON fCoriG_min                   =  -1.4584247033981E-04
(PID.TID 0000.0001) %MON fCoriG_mean                  =  -3.3916853567397E-06
(PID.TID 0000.0001) %MON fCoriG_sd                    =   1.0307625572702E-04
(PID.TID 0000.0001) %MON fCoriCos_max                 =   1.4575362704741E-04
(PID.TID 0000.0001) %MON fCoriCos_min                 =   7.6328051460670E-06
(PID.TID 0000.0001) %MON fCoriCos_mean                =   9.4802286760061E-05
(PID.TID 0000.0001) %MON fCoriCos_sd                  =   4.3441777175299E-05
(PID.TID 0000.0001) INI_CG2D: CG2D normalisation factor =  1.2733809304852550E-05
(PID.TID 0000.0001) 
(PID.TID 0000.0001) CONFIG_CHECK: OK
(PID.TID 0000.0001) // =======================================================
(PID.TID 0000.0001) // Model configuration
(PID.TID 0000.0001) // =======================================================
(PID.TID 0000.0001) //
(PID.TID 0000.0001) // "Physical" paramters ( PARM01 in namelist )
(PID.TID 0000.0001) //
(PID.TID 0000.0001) buoyancyRelation = /* Type of relation to get Buoyancy */
(PID.TID 0000.0001)               'OCEANIC'
(PID.TID 0000.0001)     ;
(PID.TID 0000.0001) fluidIsAir  =  /* fluid major constituent is Air */
(PID.TID 0000.0001)                   F
(PID.TID 0000.0001)     ;
(PID.TID 0000.0001) fluidIsWater=  /* fluid major constituent is Water */
(PID.TID 0000.0001)                   T
(PID.TID 0000.0001)     ;
(PID.TID 0000.0001) usingPCoords =  /* use p (or p*) vertical coordinate */
(PID.TID 0000.0001)                   F
(PID.TID 0000.0001)     ;
(PID.TID 0000.0001) usingZCoords =  /* use z (or z*) vertical coordinate */
(PID.TID 0000.0001)                   T
(PID.TID 0000.0001)     ;
(PID.TID 0000.0001) tRef =   /* Reference temperature profile ( oC or K ) */
(PID.TID 0000.0001)    15 @  2.000000000000000E+01              /* K =  1: 15 */
(PID.TID 0000.0001)     ;
(PID.TID 0000.0001) sRef =   /* Reference salinity profile ( psu ) */
(PID.TID 0000.0001)    15 @  3.500000000000000E+01              /* K =  1: 15 */
(PID.TID 0000.0001)     ;
(PID.TID 0000.0001) viscAh =   /* Lateral eddy viscosity ( m^2/s ) */
(PID.TID 0000.0001)                 2.500000000000000E+05
(PID.TID 0000.0001)     ;
(PID.TID 0000.0001) viscAhMax =   /* Maximum lateral eddy viscosity ( m^2/s ) */
(PID.TID 0000.0001)                 1.000000000000000E+21
(PID.TID 0000.0001)     ;
(PID.TID 0000.0001) viscAhGrid =   /* Grid dependent lateral eddy viscosity ( non-dim. ) */
(PID.TID 0000.0001)                 0.000000000000000E+00
(PID.TID 0000.0001)     ;
(PID.TID 0000.0001) useFullLeith =   /* Use Full Form of Leith Viscosity on/off flag*/
(PID.TID 0000.0001)                   F
(PID.TID 0000.0001)     ;
(PID.TID 0000.0001) useStrainTensionVisc =   /* Use StrainTension Form of Viscous Operator on/off flag*/
(PID.TID 0000.0001)                   F
(PID.TID 0000.0001)     ;
(PID.TID 0000.0001) useAreaViscLength =   /* Use area for visc length instead of geom. mean*/
(PID.TID 0000.0001)                   F
(PID.TID 0000.0001)     ;
(PID.TID 0000.0001) viscC2leith = /* Leith harmonic visc. factor (on grad(vort),non-dim.) */
(PID.TID 0000.0001)                 0.000000000000000E+00
(PID.TID 0000.0001)     ;
(PID.TID 0000.0001) viscC2leithD = /* Leith harmonic viscosity factor (on grad(div),non-dim.) */
(PID.TID 0000.0001)                 0.000000000000000E+00
(PID.TID 0000.0001)     ;
(PID.TID 0000.0001) viscC2smag =   /* Smagorinsky harmonic viscosity factor (non-dim.) */
(PID.TID 0000.0001)                 0.000000000000000E+00
(PID.TID 0000.0001)     ;
(PID.TID 0000.0001) viscA4 =   /* Lateral biharmonic viscosity ( m^4/s ) */
(PID.TID 0000.0001)                 0.000000000000000E+00
(PID.TID 0000.0001)     ;
(PID.TID 0000.0001) viscA4Max =   /* Maximum biharmonic viscosity ( m^2/s ) */
(PID.TID 0000.0001)                 1.000000000000000E+21
(PID.TID 0000.0001)     ;
(PID.TID 0000.0001) viscA4Grid =   /* Grid dependent biharmonic viscosity ( non-dim. ) */
(PID.TID 0000.0001)                 0.000000000000000E+00
(PID.TID 0000.0001)     ;
(PID.TID 0000.0001) viscC4leith = /* Leith biharm viscosity factor (on grad(vort), non-dim.) */
(PID.TID 0000.0001)                 0.000000000000000E+00
(PID.TID 0000.0001)     ;
(PID.TID 0000.0001) viscC4leithD = /* Leith biharm viscosity factor (on grad(div), non-dim.) */
(PID.TID 0000.0001)                 0.000000000000000E+00
(PID.TID 0000.0001)     ;
(PID.TID 0000.0001) viscC4Smag = /* Smagorinsky biharm viscosity factor (non-dim) */
(PID.TID 0000.0001)                 0.000000000000000E+00
(PID.TID 0000.0001)     ;
(PID.TID 0000.0001) no_slip_sides =  /* Viscous BCs: No-slip sides */
(PID.TID 0000.0001)                   T
(PID.TID 0000.0001)     ;
(PID.TID 0000.0001) sideDragFactor = /* side-drag scaling factor (non-dim) */
(PID.TID 0000.0001)                 2.000000000000000E+00
(PID.TID 0000.0001)     ;
(PID.TID 0000.0001) viscAr =   /* Vertical eddy viscosity ( units of r^2/s ) */
(PID.TID 0000.0001)                 5.000000000000000E-03
(PID.TID 0000.0001)     ;
(PID.TID 0000.0001) no_slip_bottom =  /* Viscous BCs: No-slip bottom */
(PID.TID 0000.0001)                   T
(PID.TID 0000.0001)     ;
(PID.TID 0000.0001) bottomDragLinear = /* linear bottom-drag coefficient ( 1/s ) */
(PID.TID 0000.0001)                 0.000000000000000E+00
(PID.TID 0000.0001)     ;
(PID.TID 0000.0001) bottomDragQuadratic = /* quadratic bottom-drag coeff. ( 1/m ) */
(PID.TID 0000.0001)                 0.000000000000000E+00
(PID.TID 0000.0001)     ;
(PID.TID 0000.0001) diffKhT =   /* Laplacian diffusion of heat laterally ( m^2/s ) */
(PID.TID 0000.0001)                 0.000000000000000E+00
(PID.TID 0000.0001)     ;
(PID.TID 0000.0001) diffK4T =   /* Bihaarmonic diffusion of heat laterally ( m^4/s ) */
(PID.TID 0000.0001)                 0.000000000000000E+00
(PID.TID 0000.0001)     ;
(PID.TID 0000.0001) diffKhS =   /* Laplacian diffusion of salt laterally ( m^2/s ) */
(PID.TID 0000.0001)                 0.000000000000000E+00
(PID.TID 0000.0001)     ;
(PID.TID 0000.0001) diffK4S =   /* Bihaarmonic diffusion of salt laterally ( m^4/s ) */
(PID.TID 0000.0001)                 0.000000000000000E+00
(PID.TID 0000.0001)     ;
(PID.TID 0000.0001) diffKrNrT = /* vertical profile of vertical diffusion of Temp ( m^2/s )*/
(PID.TID 0000.0001)    15 @  2.000000000000000E-05              /* K =  1: 15 */
(PID.TID 0000.0001)     ;
(PID.TID 0000.0001) diffKrNrS = /* vertical profile of vertical diffusion of Salt ( m^2/s )*/
(PID.TID 0000.0001)    15 @  2.000000000000000E-05              /* K =  1: 15 */
(PID.TID 0000.0001)     ;
(PID.TID 0000.0001) diffKrBL79surf =   /* Surface diffusion for Bryan and Lewis 1979 ( m^2/s ) */
(PID.TID 0000.0001)                 0.000000000000000E+00
(PID.TID 0000.0001)     ;
(PID.TID 0000.0001) diffKrBL79deep =   /* Deep diffusion for Bryan and Lewis 1979 ( m^2/s ) */
(PID.TID 0000.0001)                 0.000000000000000E+00
(PID.TID 0000.0001)     ;
(PID.TID 0000.0001) diffKrBL79scl =   /* Depth scale for Bryan and Lewis 1979 ( m ) */
(PID.TID 0000.0001)                 2.000000000000000E+02
(PID.TID 0000.0001)     ;
(PID.TID 0000.0001) diffKrBL79Ho =   /* Turning depth for Bryan and Lewis 1979 ( m ) */
(PID.TID 0000.0001)                -2.000000000000000E+03
(PID.TID 0000.0001)     ;
(PID.TID 0000.0001) ivdc_kappa = /* Implicit Vertical Diffusivity for Convection ( m^2/s ) */
(PID.TID 0000.0001)                 1.000000000000000E+02
(PID.TID 0000.0001)     ;
(PID.TID 0000.0001) hMixCriteria=  /* Criteria for mixed-layer diagnostic */
(PID.TID 0000.0001)                -8.000000000000000E-01
(PID.TID 0000.0001)     ;
(PID.TID 0000.0001) eosType =  /* Type of Equation of State */
(PID.TID 0000.0001)               'JMD95Z'
(PID.TID 0000.0001)     ;
(PID.TID 0000.0001) tAlpha =   /* Linear EOS thermal expansion coefficient ( 1/oC ) */
(PID.TID 0000.0001)                 1.234567000000000E+05
(PID.TID 0000.0001)     ;
(PID.TID 0000.0001) sBeta =   /* Linear EOS haline contraction coefficient ( 1/psu ) */
(PID.TID 0000.0001)                 1.234567000000000E+05
(PID.TID 0000.0001)     ;
(PID.TID 0000.0001) rhonil =   /* Reference density ( kg/m^3 ) */
(PID.TID 0000.0001)                 1.035000000000000E+03
(PID.TID 0000.0001)     ;
(PID.TID 0000.0001) rhoConst =   /* Reference density ( kg/m^3 ) */
(PID.TID 0000.0001)                 1.035000000000000E+03
(PID.TID 0000.0001)     ;
(PID.TID 0000.0001) rhoFacC = /* normalized Reference density @ cell-Center (-) */
(PID.TID 0000.0001)    15 @  1.000000000000000E+00              /* K =  1: 15 */
(PID.TID 0000.0001)     ;
(PID.TID 0000.0001) rhoFacF = /* normalized Reference density @ W-Interface (-) */
(PID.TID 0000.0001)    16 @  1.000000000000000E+00              /* K =  1: 16 */
(PID.TID 0000.0001)     ;
(PID.TID 0000.0001) rhoConstFresh =   /* Reference density ( kg/m^3 ) */
(PID.TID 0000.0001)                 1.000000000000000E+03
(PID.TID 0000.0001)     ;
(PID.TID 0000.0001) gravity =   /* Gravitational acceleration ( m/s^2 ) */
(PID.TID 0000.0001)                 9.810000000000001E+00
(PID.TID 0000.0001)     ;
(PID.TID 0000.0001) gBaro =   /* Barotropic gravity ( m/s^2 ) */
(PID.TID 0000.0001)                 9.810000000000001E+00
(PID.TID 0000.0001)     ;
(PID.TID 0000.0001) rotationPeriod =   /* Rotation Period ( s ) */
(PID.TID 0000.0001)                 8.616400000000000E+04
(PID.TID 0000.0001)     ;
(PID.TID 0000.0001) omega =   /* Angular velocity ( rad/s ) */
(PID.TID 0000.0001)                 7.292123516990374E-05
(PID.TID 0000.0001)     ;
(PID.TID 0000.0001) f0 =   /* Reference coriolis parameter ( 1/s ) */
(PID.TID 0000.0001)                 1.000000000000000E-04
(PID.TID 0000.0001)     ;
(PID.TID 0000.0001) beta =   /* Beta ( 1/(m.s) ) */
(PID.TID 0000.0001)                 9.999999999999998E-12
(PID.TID 0000.0001)     ;
(PID.TID 0000.0001) freeSurfFac =   /* Implicit free surface factor */
(PID.TID 0000.0001)                 1.000000000000000E+00
(PID.TID 0000.0001)     ;
(PID.TID 0000.0001) implicitFreeSurface =   /* Implicit free surface on/off flag */
(PID.TID 0000.0001)                   T
(PID.TID 0000.0001)     ;
(PID.TID 0000.0001) rigidLid =   /* Rigid lid on/off flag */
(PID.TID 0000.0001)                   F
(PID.TID 0000.0001)     ;
(PID.TID 0000.0001) implicSurfPress =   /* Surface Pressure implicit factor (0-1)*/
(PID.TID 0000.0001)                 1.000000000000000E+00
(PID.TID 0000.0001)     ;
(PID.TID 0000.0001) implicDiv2Dflow =   /* Barot. Flow Div. implicit factor (0-1)*/
(PID.TID 0000.0001)                 1.000000000000000E+00
(PID.TID 0000.0001)     ;
(PID.TID 0000.0001) exactConserv =   /* Exact Volume Conservation on/off flag*/
(PID.TID 0000.0001)                   T
(PID.TID 0000.0001)     ;
(PID.TID 0000.0001) linFSConserveTr =   /* Tracer correction for Lin Free Surface on/off flag*/
(PID.TID 0000.0001)                   F
(PID.TID 0000.0001)     ;
(PID.TID 0000.0001) uniformLin_PhiSurf =   /* use uniform Bo_surf on/off flag*/
(PID.TID 0000.0001)                   T
(PID.TID 0000.0001)     ;
(PID.TID 0000.0001) nonlinFreeSurf =   /* Non-linear Free Surf. options (-1,0,1,2,3)*/
(PID.TID 0000.0001)                       0
(PID.TID 0000.0001)     ;
(PID.TID 0000.0001)      -1,0= Off ; 1,2,3= On, 2=+rescale gU,gV, 3=+update cg2d solv.
(PID.TID 0000.0001) hFacInf =   /* lower threshold for hFac (nonlinFreeSurf only)*/
(PID.TID 0000.0001)                 2.000000000000000E-01
(PID.TID 0000.0001)     ;
(PID.TID 0000.0001) hFacSup =   /* upper threshold for hFac (nonlinFreeSurf only)*/
(PID.TID 0000.0001)                 2.000000000000000E+00
(PID.TID 0000.0001)     ;
(PID.TID 0000.0001) select_rStar =   /* r* Coordinate options (not yet implemented)*/
(PID.TID 0000.0001)                       0
(PID.TID 0000.0001)     ;
(PID.TID 0000.0001) useRealFreshWaterFlux =   /* Real Fresh Water Flux on/off flag*/
(PID.TID 0000.0001)                   F
(PID.TID 0000.0001)     ;
(PID.TID 0000.0001) convertFW2Salt = /* convert F.W. Flux to Salt Flux (-1=use local S)(ppt)*/
(PID.TID 0000.0001)                 3.500000000000000E+01
(PID.TID 0000.0001)     ;
(PID.TID 0000.0001) use3Dsolver = /* use 3-D pressure solver on/off flag */
(PID.TID 0000.0001)                   F
(PID.TID 0000.0001)     ;
(PID.TID 0000.0001) nonHydrostatic =  /* Non-Hydrostatic on/off flag */
(PID.TID 0000.0001)                   F
(PID.TID 0000.0001)     ;
(PID.TID 0000.0001) nh_Am2 = /* Non-Hydrostatic terms scaling factor */
(PID.TID 0000.0001)                 1.000000000000000E+00
(PID.TID 0000.0001)     ;
(PID.TID 0000.0001) quasiHydrostatic = /* Quasi-Hydrostatic on/off flag */
(PID.TID 0000.0001)                   F
(PID.TID 0000.0001)     ;
(PID.TID 0000.0001) momStepping =  /* Momentum equation on/off flag */
(PID.TID 0000.0001)                   T
(PID.TID 0000.0001)     ;
(PID.TID 0000.0001) vectorInvariantMomentum= /* Vector-Invariant Momentum on/off */
(PID.TID 0000.0001)                   F
(PID.TID 0000.0001)     ;
(PID.TID 0000.0001) momAdvection =  /* Momentum advection on/off flag */
(PID.TID 0000.0001)                   T
(PID.TID 0000.0001)     ;
(PID.TID 0000.0001) momViscosity =  /* Momentum viscosity on/off flag */
(PID.TID 0000.0001)                   T
(PID.TID 0000.0001)     ;
(PID.TID 0000.0001) momImplVertAdv =/* Momentum implicit vert. advection on/off*/
(PID.TID 0000.0001)                   F
(PID.TID 0000.0001)     ;
(PID.TID 0000.0001) implicitViscosity = /* Implicit viscosity on/off flag */
(PID.TID 0000.0001)                   F
(PID.TID 0000.0001)     ;
(PID.TID 0000.0001) metricTerms =  /* metric-Terms on/off flag */
(PID.TID 0000.0001)                   T
(PID.TID 0000.0001)     ;
(PID.TID 0000.0001) useNHMTerms = /* Non-Hydrostatic Metric-Terms on/off */
(PID.TID 0000.0001)                   F
(PID.TID 0000.0001)     ;
(PID.TID 0000.0001) useConstantF =  /* use Constant f0 Coriolis flag */
(PID.TID 0000.0001)                   F
(PID.TID 0000.0001)     ;
(PID.TID 0000.0001) useBetaPlaneF = /* use Beta-Plane Coriolis flag */
(PID.TID 0000.0001)                   F
(PID.TID 0000.0001)     ;
(PID.TID 0000.0001) useSphereF  =   /* use Spherical Coriolis flag */
(PID.TID 0000.0001)                   T
(PID.TID 0000.0001)     ;
(PID.TID 0000.0001) use3dCoriolis = /* 3-D Coriolis on/off flag */
(PID.TID 0000.0001)                   F
(PID.TID 0000.0001)     ;
(PID.TID 0000.0001) useCoriolis =  /* Coriolis on/off flag */
(PID.TID 0000.0001)                   T
(PID.TID 0000.0001)     ;
(PID.TID 0000.0001) useCDscheme =  /* CD scheme on/off flag */
(PID.TID 0000.0001)                   F
(PID.TID 0000.0001)     ;
(PID.TID 0000.0001) useJamartWetPoints= /* Coriolis WetPoints method flag */
(PID.TID 0000.0001)                   F
(PID.TID 0000.0001)     ;
(PID.TID 0000.0001) useJamartMomAdv= /* V.I. Non-linear terms Jamart flag */
(PID.TID 0000.0001)                   F
(PID.TID 0000.0001)     ;
(PID.TID 0000.0001) SadournyCoriolis= /* Sadourny Coriolis discr. flag */
(PID.TID 0000.0001)                   F
(PID.TID 0000.0001)     ;
(PID.TID 0000.0001) upwindVorticity= /* Upwind bias vorticity flag */
(PID.TID 0000.0001)                   F
(PID.TID 0000.0001)     ;
(PID.TID 0000.0001) useAbsVorticity= /* Work with f+zeta in Coriolis */
(PID.TID 0000.0001)                   F
(PID.TID 0000.0001)     ;
(PID.TID 0000.0001) highOrderVorticity= /* High order interp. of vort. flag */
(PID.TID 0000.0001)                   F
(PID.TID 0000.0001)     ;
(PID.TID 0000.0001) upwindShear= /* Upwind vertical Shear advection flag */
(PID.TID 0000.0001)                   F
(PID.TID 0000.0001)     ;
(PID.TID 0000.0001) selectKEscheme= /* Kinetic Energy scheme selector */
(PID.TID 0000.0001)                       0
(PID.TID 0000.0001)     ;
(PID.TID 0000.0001) momForcing =  /* Momentum forcing on/off flag */
(PID.TID 0000.0001)                   T
(PID.TID 0000.0001)     ;
(PID.TID 0000.0001) momPressureForcing =  /* Momentum pressure term on/off flag */
(PID.TID 0000.0001)                   T
(PID.TID 0000.0001)     ;
(PID.TID 0000.0001) implicitIntGravWave= /* Implicit Internal Gravity Wave flag */
(PID.TID 0000.0001)                   F
(PID.TID 0000.0001)     ;
(PID.TID 0000.0001) staggerTimeStep =   /* Stagger time stepping on/off flag */
(PID.TID 0000.0001)                   T
(PID.TID 0000.0001)     ;
(PID.TID 0000.0001) multiDimAdvection =   /* enable/disable Multi-Dim Advection */
(PID.TID 0000.0001)                   T
(PID.TID 0000.0001)     ;
(PID.TID 0000.0001) useMultiDimAdvec =   /* Multi-Dim Advection is/is-not used */
(PID.TID 0000.0001)                   F
(PID.TID 0000.0001)     ;
(PID.TID 0000.0001) implicitDiffusion =/* Implicit Diffusion on/off flag */
(PID.TID 0000.0001)                   T
(PID.TID 0000.0001)     ;
(PID.TID 0000.0001) tempStepping =  /* Temperature equation on/off flag */
(PID.TID 0000.0001)                   T
(PID.TID 0000.0001)     ;
(PID.TID 0000.0001) tempAdvection=  /* Temperature advection on/off flag */
(PID.TID 0000.0001)                   T
(PID.TID 0000.0001)     ;
(PID.TID 0000.0001) tempImplVertAdv =/* Temp. implicit vert. advection on/off */
(PID.TID 0000.0001)                   F
(PID.TID 0000.0001)     ;
(PID.TID 0000.0001) tempForcing  =  /* Temperature forcing on/off flag */
(PID.TID 0000.0001)                   T
(PID.TID 0000.0001)     ;
(PID.TID 0000.0001) saltStepping =  /* Salinity equation on/off flag */
(PID.TID 0000.0001)                   T
(PID.TID 0000.0001)     ;
(PID.TID 0000.0001) saltAdvection=  /* Salinity advection on/off flag */
(PID.TID 0000.0001)                   T
(PID.TID 0000.0001)     ;
(PID.TID 0000.0001) saltImplVertAdv =/* Sali. implicit vert. advection on/off */
(PID.TID 0000.0001)                   F
(PID.TID 0000.0001)     ;
(PID.TID 0000.0001) saltForcing  =  /* Salinity forcing on/off flag */
(PID.TID 0000.0001)                   T
(PID.TID 0000.0001)     ;
(PID.TID 0000.0001)  readBinaryPrec = /* Precision used for reading binary files */
(PID.TID 0000.0001)                      32
(PID.TID 0000.0001)     ;
(PID.TID 0000.0001) writeBinaryPrec = /* Precision used for writing binary files */
(PID.TID 0000.0001)                      32
(PID.TID 0000.0001)     ;
(PID.TID 0000.0001)  globalFiles = /* write "global" (=not per tile) files */
(PID.TID 0000.0001)                   F
(PID.TID 0000.0001)     ;
(PID.TID 0000.0001)  useSingleCpuIO = /* only master MPI process does I/O */
(PID.TID 0000.0001)                   F
(PID.TID 0000.0001)     ;
(PID.TID 0000.0001)  debugMode  =  /* Debug Mode on/off flag */
(PID.TID 0000.0001)                   F
(PID.TID 0000.0001)     ;
(PID.TID 0000.0001)    debLevA  =  /* 1rst level of debugging */
(PID.TID 0000.0001)                       1
(PID.TID 0000.0001)     ;
(PID.TID 0000.0001)    debLevB  =  /* 2nd  level of debugging */
(PID.TID 0000.0001)                       2
(PID.TID 0000.0001)     ;
(PID.TID 0000.0001)  debugLevel =  /* select debugging level */
(PID.TID 0000.0001)                       1
(PID.TID 0000.0001)     ;
(PID.TID 0000.0001) //
(PID.TID 0000.0001) // Elliptic solver(s) paramters ( PARM02 in namelist )
(PID.TID 0000.0001) //
(PID.TID 0000.0001) cg2dMaxIters =   /* Upper limit on 2d con. grad iterations  */
(PID.TID 0000.0001)                     500
(PID.TID 0000.0001)     ;
(PID.TID 0000.0001) cg2dChkResFreq =   /* 2d con. grad convergence test frequency */
(PID.TID 0000.0001)                       1
(PID.TID 0000.0001)     ;
(PID.TID 0000.0001) cg2dTargetResidual =   /* 2d con. grad target residual  */
(PID.TID 0000.0001)                 1.000000000000001E-17
(PID.TID 0000.0001)     ;
(PID.TID 0000.0001) cg2dTargetResWunit =   /* CG2d target residual [W units] */
(PID.TID 0000.0001)                -1.000000000000000E+00
(PID.TID 0000.0001)     ;
(PID.TID 0000.0001) cg2dPreCondFreq =   /* Freq. for updating cg2d preconditioner */
(PID.TID 0000.0001)                       1
(PID.TID 0000.0001)     ;
(PID.TID 0000.0001) //
(PID.TID 0000.0001) // Time stepping paramters ( PARM03 in namelist )
(PID.TID 0000.0001) //
(PID.TID 0000.0001) nIter0 =   /* Run starting timestep number  */
(PID.TID 0000.0001)                       0
(PID.TID 0000.0001)     ;
(PID.TID 0000.0001) nTimeSteps =   /* Number of timesteps */
(PID.TID 0000.0001)                    1095
(PID.TID 0000.0001)     ;
(PID.TID 0000.0001) deltaTmom =   /* Momentum equation timestep ( s ) */
(PID.TID 0000.0001)                 9.000000000000000E+02
(PID.TID 0000.0001)     ;
(PID.TID 0000.0001) deltaTfreesurf =   /* FreeSurface equation timestep ( s ) */
(PID.TID 0000.0001)                 2.880000000000000E+04
(PID.TID 0000.0001)     ;
(PID.TID 0000.0001) dTtracerLev =   /* Tracer equation timestep ( s ) */
(PID.TID 0000.0001)    15 @  2.880000000000000E+04              /* K =  1: 15 */
(PID.TID 0000.0001)     ;
(PID.TID 0000.0001) deltaTClock  =   /* Model clock timestep ( s ) */
(PID.TID 0000.0001)                 2.880000000000000E+04
(PID.TID 0000.0001)     ;
(PID.TID 0000.0001) cAdjFreq =   /* Convective adjustment interval ( s ) */
(PID.TID 0000.0001)                 0.000000000000000E+00
(PID.TID 0000.0001)     ;
(PID.TID 0000.0001) momForcingOutAB = /* =1: take Momentum Forcing out of Adams-Bash. stepping */
(PID.TID 0000.0001)                       1
(PID.TID 0000.0001)     ;
(PID.TID 0000.0001) tracForcingOutAB = /* =1: take T,S,pTr Forcing out of Adams-Bash. stepping */
(PID.TID 0000.0001)                       1
(PID.TID 0000.0001)     ;
(PID.TID 0000.0001) momDissip_In_AB = /* put Dissipation Tendency in Adams-Bash. stepping */
(PID.TID 0000.0001)                   T
(PID.TID 0000.0001)     ;
(PID.TID 0000.0001) doAB_onGtGs = /* apply AB on Tendencies (rather than on T,S)*/
(PID.TID 0000.0001)                   T
(PID.TID 0000.0001)     ;
(PID.TID 0000.0001) abEps =   /* Adams-Bashforth-2 stabilizing weight */
(PID.TID 0000.0001)                 1.000000000000000E-01
(PID.TID 0000.0001)     ;
(PID.TID 0000.0001) baseTime =   /* Model base time ( s ). */
(PID.TID 0000.0001)                 0.000000000000000E+00
(PID.TID 0000.0001)     ;
(PID.TID 0000.0001) startTime =   /* Run start time ( s ). */
(PID.TID 0000.0001)                 0.000000000000000E+00
(PID.TID 0000.0001)     ;
(PID.TID 0000.0001) endTime =   /* Integration ending time ( s ). */
(PID.TID 0000.0001)                 3.153600000000000E+07
(PID.TID 0000.0001)     ;
(PID.TID 0000.0001) pChkPtFreq =   /* Permanent restart/checkpoint file interval ( s ). */
(PID.TID 0000.0001)                 3.153600000000000E+07
(PID.TID 0000.0001)     ;
(PID.TID 0000.0001) chkPtFreq =   /* Rolling restart/checkpoint file interval ( s ). */
(PID.TID 0000.0001)                 3.153600000000000E+07
(PID.TID 0000.0001)     ;
(PID.TID 0000.0001) pickup_write_mdsio =   /* Model IO flag. */
(PID.TID 0000.0001)                   T
(PID.TID 0000.0001)     ;
(PID.TID 0000.0001) pickup_read_mdsio =   /* Model IO flag. */
(PID.TID 0000.0001)                   T
(PID.TID 0000.0001)     ;
(PID.TID 0000.0001) pickup_write_immed =   /* Model IO flag. */
(PID.TID 0000.0001)                   F
(PID.TID 0000.0001)     ;
(PID.TID 0000.0001) dumpFreq =   /* Model state write out interval ( s ). */
(PID.TID 0000.0001)                 0.000000000000000E+00
(PID.TID 0000.0001)     ;
(PID.TID 0000.0001) dumpInitAndLast= /* write out Initial & Last iter. model state */
(PID.TID 0000.0001)                   T
(PID.TID 0000.0001)     ;
(PID.TID 0000.0001) snapshot_mdsio =   /* Model IO flag. */
(PID.TID 0000.0001)                   T
(PID.TID 0000.0001)     ;
(PID.TID 0000.0001) monitorFreq =   /* Monitor output interval ( s ). */
(PID.TID 0000.0001)                 3.153600000000000E+07
(PID.TID 0000.0001)     ;
(PID.TID 0000.0001) monitor_stdio =   /* Model IO flag. */
(PID.TID 0000.0001)                   T
(PID.TID 0000.0001)     ;
(PID.TID 0000.0001) externForcingPeriod =   /* forcing period (s) */
(PID.TID 0000.0001)                 0.000000000000000E+00
(PID.TID 0000.0001)     ;
(PID.TID 0000.0001) externForcingCycle =   /* period of the cyle (s). */
(PID.TID 0000.0001)                 0.000000000000000E+00
(PID.TID 0000.0001)     ;
(PID.TID 0000.0001) tauThetaClimRelax =   /* relaxation time scale (s) */
(PID.TID 0000.0001)                 0.000000000000000E+00
(PID.TID 0000.0001)     ;
(PID.TID 0000.0001) tauSaltClimRelax =   /* relaxation time scale (s) */
(PID.TID 0000.0001)                 0.000000000000000E+00
(PID.TID 0000.0001)     ;
(PID.TID 0000.0001) latBandClimRelax =   /* max. Lat. where relaxation */
(PID.TID 0000.0001)                 1.800000000000000E+02
(PID.TID 0000.0001)     ;
(PID.TID 0000.0001) //
(PID.TID 0000.0001) // Gridding paramters ( PARM04 in namelist )
(PID.TID 0000.0001) //
(PID.TID 0000.0001) usingCartesianGrid = /* Cartesian coordinates flag ( True/False ) */
(PID.TID 0000.0001)                   F
(PID.TID 0000.0001)     ;
(PID.TID 0000.0001) usingCylindricalGrid = /* Cylindrical coordinates flag ( True/False ) */
(PID.TID 0000.0001)                   F
(PID.TID 0000.0001)     ;
(PID.TID 0000.0001) usingSphericalPolarGrid = /* Spherical coordinates flag ( True/False ) */
(PID.TID 0000.0001)                   T
(PID.TID 0000.0001)     ;
(PID.TID 0000.0001) usingCurvilinearGrid = /* Curvilinear coordinates flag ( True/False ) */
(PID.TID 0000.0001)                   F
(PID.TID 0000.0001)     ;
(PID.TID 0000.0001) Ro_SeaLevel = /* r(1) ( units of r ) */
(PID.TID 0000.0001)                 0.000000000000000E+00
(PID.TID 0000.0001)     ;
(PID.TID 0000.0001) rkSign =   /* index orientation relative to vertical coordinate */
(PID.TID 0000.0001)                -1.000000000000000E+00
(PID.TID 0000.0001)     ;
(PID.TID 0000.0001) gravitySign = /* gravity orientation relative to vertical coordinate */
(PID.TID 0000.0001)                -1.000000000000000E+00
(PID.TID 0000.0001)     ;
(PID.TID 0000.0001) horiVertRatio =   /* Ratio on units : Horiz - Vertical */
(PID.TID 0000.0001)                 1.000000000000000E+00
(PID.TID 0000.0001)     ;
(PID.TID 0000.0001) drC =   /* C spacing ( units of r ) */
(PID.TID 0000.0001)                 2.500000000000000E+01,      /* K =  1 */
(PID.TID 0000.0001)                 6.000000000000000E+01,      /* K =  2 */
(PID.TID 0000.0001)                 8.500000000000000E+01,      /* K =  3 */
(PID.TID 0000.0001)                 1.200000000000000E+02,      /* K =  4 */
(PID.TID 0000.0001)                 1.650000000000000E+02,      /* K =  5 */
(PID.TID 0000.0001)                 2.150000000000000E+02,      /* K =  6 */
(PID.TID 0000.0001)                 2.650000000000000E+02,      /* K =  7 */
(PID.TID 0000.0001)                 3.150000000000000E+02,      /* K =  8 */
(PID.TID 0000.0001)                 3.650000000000000E+02,      /* K =  9 */
(PID.TID 0000.0001)                 4.150000000000000E+02,      /* K = 10 */
(PID.TID 0000.0001)                 4.650000000000000E+02,      /* K = 11 */
(PID.TID 0000.0001)                 5.150000000000000E+02,      /* K = 12 */
(PID.TID 0000.0001)                 5.650000000000000E+02,      /* K = 13 */
(PID.TID 0000.0001)                 6.150000000000000E+02,      /* K = 14 */
(PID.TID 0000.0001)                 6.650000000000000E+02       /* K = 15 */
(PID.TID 0000.0001)     ;
(PID.TID 0000.0001) drF =   /* W spacing ( units of r ) */
(PID.TID 0000.0001)                 5.000000000000000E+01,      /* K =  1 */
(PID.TID 0000.0001)                 7.000000000000000E+01,      /* K =  2 */
(PID.TID 0000.0001)                 1.000000000000000E+02,      /* K =  3 */
(PID.TID 0000.0001)                 1.400000000000000E+02,      /* K =  4 */
(PID.TID 0000.0001)                 1.900000000000000E+02,      /* K =  5 */
(PID.TID 0000.0001)                 2.400000000000000E+02,      /* K =  6 */
(PID.TID 0000.0001)                 2.900000000000000E+02,      /* K =  7 */
(PID.TID 0000.0001)                 3.400000000000000E+02,      /* K =  8 */
(PID.TID 0000.0001)                 3.900000000000000E+02,      /* K =  9 */
(PID.TID 0000.0001)                 4.400000000000000E+02,      /* K = 10 */
(PID.TID 0000.0001)                 4.900000000000000E+02,      /* K = 11 */
(PID.TID 0000.0001)                 5.400000000000000E+02,      /* K = 12 */
(PID.TID 0000.0001)                 5.900000000000000E+02,      /* K = 13 */
(PID.TID 0000.0001)                 6.400000000000000E+02,      /* K = 14 */
(PID.TID 0000.0001)                 6.900000000000000E+02       /* K = 15 */
(PID.TID 0000.0001)     ;
(PID.TID 0000.0001) delX =   /* U spacing ( m - cartesian, degrees - spherical ) */
(PID.TID 0000.0001)    90 @  4.000000000000000E+00              /* I =  1: 90 */
(PID.TID 0000.0001)     ;
(PID.TID 0000.0001) delY =   /* V spacing ( m - cartesian, degrees - spherical ) */
(PID.TID 0000.0001)                 6.000000000000000E+00,      /* J =  1 */
(PID.TID 0000.0001)    42 @  4.000000000000000E+00,             /* J =  2: 43 */
(PID.TID 0000.0001)                 6.000000000000000E+00       /* J = 44 */
(PID.TID 0000.0001)     ;
(PID.TID 0000.0001) phiMin =    /* South edge (ignored - cartesian, degrees - spherical ) */
(PID.TID 0000.0001)                -9.000000000000000E+01
(PID.TID 0000.0001)     ;
(PID.TID 0000.0001) thetaMin =    /* West edge ( ignored - cartesian, degrees - spherical ) */
(PID.TID 0000.0001)                 0.000000000000000E+00
(PID.TID 0000.0001)     ;
(PID.TID 0000.0001) rSphere =  /* Radius ( ignored - cartesian, m - spherical ) */
(PID.TID 0000.0001)                 6.370000000000000E+06
(PID.TID 0000.0001)     ;
(PID.TID 0000.0001) deepAtmosphere = /* Deep/Shallow Atmosphere flag (True/False) */
(PID.TID 0000.0001)                   F
(PID.TID 0000.0001)     ;
(PID.TID 0000.0001) xcoord =   /* P-point X coord ( m - cartesian, degrees - spherical ) */
(PID.TID 0000.0001)                 2.000000000000000E+00,      /* I =  1 */
(PID.TID 0000.0001)                 6.000000000000000E+00,      /* I =  2 */
(PID.TID 0000.0001)                 1.000000000000000E+01,      /* I =  3 */
(PID.TID 0000.0001)                 1.400000000000000E+01,      /* I =  4 */
(PID.TID 0000.0001)                 1.800000000000000E+01,      /* I =  5 */
(PID.TID 0000.0001)                 2.200000000000000E+01,      /* I =  6 */
(PID.TID 0000.0001)                 2.600000000000000E+01,      /* I =  7 */
(PID.TID 0000.0001)                 3.000000000000000E+01,      /* I =  8 */
(PID.TID 0000.0001)                 3.400000000000000E+01,      /* I =  9 */
(PID.TID 0000.0001)                 3.800000000000000E+01,      /* I = 10 */
(PID.TID 0000.0001)                 4.200000000000000E+01,      /* I = 11 */
(PID.TID 0000.0001)                 4.600000000000000E+01,      /* I = 12 */
(PID.TID 0000.0001)                 5.000000000000000E+01,      /* I = 13 */
(PID.TID 0000.0001)                 5.400000000000000E+01,      /* I = 14 */
(PID.TID 0000.0001)                 5.800000000000000E+01,      /* I = 15 */
(PID.TID 0000.0001)                 6.200000000000000E+01,      /* I = 16 */
(PID.TID 0000.0001)                 6.600000000000000E+01,      /* I = 17 */
(PID.TID 0000.0001)                 7.000000000000000E+01,      /* I = 18 */
(PID.TID 0000.0001)                 7.400000000000000E+01,      /* I = 19 */
(PID.TID 0000.0001)                 7.800000000000000E+01,      /* I = 20 */
(PID.TID 0000.0001)                 8.200000000000000E+01,      /* I = 21 */
(PID.TID 0000.0001)                 8.600000000000000E+01,      /* I = 22 */
(PID.TID 0000.0001)                 9.000000000000000E+01,      /* I = 23 */
(PID.TID 0000.0001)                 9.400000000000000E+01,      /* I = 24 */
(PID.TID 0000.0001)                 9.800000000000000E+01,      /* I = 25 */
(PID.TID 0000.0001)                 1.020000000000000E+02,      /* I = 26 */
(PID.TID 0000.0001)                 1.060000000000000E+02,      /* I = 27 */
(PID.TID 0000.0001)                 1.100000000000000E+02,      /* I = 28 */
(PID.TID 0000.0001)                 1.140000000000000E+02,      /* I = 29 */
(PID.TID 0000.0001)                 1.180000000000000E+02,      /* I = 30 */
(PID.TID 0000.0001)                 1.220000000000000E+02,      /* I = 31 */
(PID.TID 0000.0001)                 1.260000000000000E+02,      /* I = 32 */
(PID.TID 0000.0001)                 1.300000000000000E+02,      /* I = 33 */
(PID.TID 0000.0001)                 1.340000000000000E+02,      /* I = 34 */
(PID.TID 0000.0001)                 1.380000000000000E+02,      /* I = 35 */
(PID.TID 0000.0001)                 1.420000000000000E+02,      /* I = 36 */
(PID.TID 0000.0001)                 1.460000000000000E+02,      /* I = 37 */
(PID.TID 0000.0001)                 1.500000000000000E+02,      /* I = 38 */
(PID.TID 0000.0001)                 1.540000000000000E+02,      /* I = 39 */
(PID.TID 0000.0001)                 1.580000000000000E+02,      /* I = 40 */
(PID.TID 0000.0001)                 1.620000000000000E+02,      /* I = 41 */
(PID.TID 0000.0001)                 1.660000000000000E+02,      /* I = 42 */
(PID.TID 0000.0001)                 1.700000000000000E+02,      /* I = 43 */
(PID.TID 0000.0001)                 1.740000000000000E+02,      /* I = 44 */
(PID.TID 0000.0001)                 1.780000000000000E+02,      /* I = 45 */
(PID.TID 0000.0001)                 1.820000000000000E+02,      /* I = 46 */
(PID.TID 0000.0001)                 1.860000000000000E+02,      /* I = 47 */
(PID.TID 0000.0001)                 1.900000000000000E+02,      /* I = 48 */
(PID.TID 0000.0001)                 1.940000000000000E+02,      /* I = 49 */
(PID.TID 0000.0001)                 1.980000000000000E+02,      /* I = 50 */
(PID.TID 0000.0001)                 2.020000000000000E+02,      /* I = 51 */
(PID.TID 0000.0001)                 2.060000000000000E+02,      /* I = 52 */
(PID.TID 0000.0001)                 2.100000000000000E+02,      /* I = 53 */
(PID.TID 0000.0001)                 2.140000000000000E+02,      /* I = 54 */
(PID.TID 0000.0001)                 2.180000000000000E+02,      /* I = 55 */
(PID.TID 0000.0001)                 2.220000000000000E+02,      /* I = 56 */
(PID.TID 0000.0001)                 2.260000000000000E+02,      /* I = 57 */
(PID.TID 0000.0001)                 2.300000000000000E+02,      /* I = 58 */
(PID.TID 0000.0001)                 2.340000000000000E+02,      /* I = 59 */
(PID.TID 0000.0001)                 2.380000000000000E+02,      /* I = 60 */
(PID.TID 0000.0001)                 2.420000000000000E+02,      /* I = 61 */
(PID.TID 0000.0001)                 2.460000000000000E+02,      /* I = 62 */
(PID.TID 0000.0001)                 2.500000000000000E+02,      /* I = 63 */
(PID.TID 0000.0001)                 2.540000000000000E+02,      /* I = 64 */
(PID.TID 0000.0001)                 2.580000000000000E+02,      /* I = 65 */
(PID.TID 0000.0001)                 2.620000000000000E+02,      /* I = 66 */
(PID.TID 0000.0001)                 2.660000000000000E+02,      /* I = 67 */
(PID.TID 0000.0001)                 2.700000000000000E+02,      /* I = 68 */
(PID.TID 0000.0001)                 2.740000000000000E+02,      /* I = 69 */
(PID.TID 0000.0001)                 2.780000000000000E+02,      /* I = 70 */
(PID.TID 0000.0001)                 2.820000000000000E+02,      /* I = 71 */
(PID.TID 0000.0001)                 2.860000000000000E+02,      /* I = 72 */
(PID.TID 0000.0001)                 2.900000000000000E+02,      /* I = 73 */
(PID.TID 0000.0001)                 2.940000000000000E+02,      /* I = 74 */
(PID.TID 0000.0001)                 2.980000000000000E+02,      /* I = 75 */
(PID.TID 0000.0001)                 3.020000000000000E+02,      /* I = 76 */
(PID.TID 0000.0001)                 3.060000000000000E+02,      /* I = 77 */
(PID.TID 0000.0001)                 3.100000000000000E+02,      /* I = 78 */
(PID.TID 0000.0001)                 3.140000000000000E+02,      /* I = 79 */
(PID.TID 0000.0001)                 3.180000000000000E+02,      /* I = 80 */
(PID.TID 0000.0001)                 3.220000000000000E+02,      /* I = 81 */
(PID.TID 0000.0001)                 3.260000000000000E+02,      /* I = 82 */
(PID.TID 0000.0001)                 3.300000000000000E+02,      /* I = 83 */
(PID.TID 0000.0001)                 3.340000000000000E+02,      /* I = 84 */
(PID.TID 0000.0001)                 3.380000000000000E+02,      /* I = 85 */
(PID.TID 0000.0001)                 3.420000000000000E+02,      /* I = 86 */
(PID.TID 0000.0001)                 3.460000000000000E+02,      /* I = 87 */
(PID.TID 0000.0001)                 3.500000000000000E+02,      /* I = 88 */
(PID.TID 0000.0001)                 3.540000000000000E+02,      /* I = 89 */
(PID.TID 0000.0001)                 3.580000000000000E+02       /* I = 90 */
(PID.TID 0000.0001)     ;
(PID.TID 0000.0001) ycoord =   /* P-point Y coord ( m - cartesian, degrees - spherical ) */
(PID.TID 0000.0001)                -8.700000000000000E+01,      /* J =  1 */
(PID.TID 0000.0001)                -8.200000000000000E+01,      /* J =  2 */
(PID.TID 0000.0001)                -7.800000000000000E+01,      /* J =  3 */
(PID.TID 0000.0001)                -7.400000000000000E+01,      /* J =  4 */
(PID.TID 0000.0001)                -7.000000000000000E+01,      /* J =  5 */
(PID.TID 0000.0001)                -6.600000000000000E+01,      /* J =  6 */
(PID.TID 0000.0001)                -6.200000000000000E+01,      /* J =  7 */
(PID.TID 0000.0001)                -5.800000000000000E+01,      /* J =  8 */
(PID.TID 0000.0001)                -5.400000000000000E+01,      /* J =  9 */
(PID.TID 0000.0001)                -5.000000000000000E+01,      /* J = 10 */
(PID.TID 0000.0001)                -4.600000000000000E+01,      /* J = 11 */
(PID.TID 0000.0001)                -4.200000000000000E+01,      /* J = 12 */
(PID.TID 0000.0001)                -3.800000000000000E+01,      /* J = 13 */
(PID.TID 0000.0001)                -3.400000000000000E+01,      /* J = 14 */
(PID.TID 0000.0001)                -3.000000000000000E+01,      /* J = 15 */
(PID.TID 0000.0001)                -2.600000000000000E+01,      /* J = 16 */
(PID.TID 0000.0001)                -2.200000000000000E+01,      /* J = 17 */
(PID.TID 0000.0001)                -1.800000000000000E+01,      /* J = 18 */
(PID.TID 0000.0001)                -1.400000000000000E+01,      /* J = 19 */
(PID.TID 0000.0001)                -1.000000000000000E+01,      /* J = 20 */
(PID.TID 0000.0001)                -6.000000000000000E+00,      /* J = 21 */
(PID.TID 0000.0001)                -2.000000000000000E+00,      /* J = 22 */
(PID.TID 0000.0001)                 2.000000000000000E+00,      /* J = 23 */
(PID.TID 0000.0001)                 6.000000000000000E+00,      /* J = 24 */
(PID.TID 0000.0001)                 1.000000000000000E+01,      /* J = 25 */
(PID.TID 0000.0001)                 1.400000000000000E+01,      /* J = 26 */
(PID.TID 0000.0001)                 1.800000000000000E+01,      /* J = 27 */
(PID.TID 0000.0001)                 2.200000000000000E+01,      /* J = 28 */
(PID.TID 0000.0001)                 2.600000000000000E+01,      /* J = 29 */
(PID.TID 0000.0001)                 3.000000000000000E+01,      /* J = 30 */
(PID.TID 0000.0001)                 3.400000000000000E+01,      /* J = 31 */
(PID.TID 0000.0001)                 3.800000000000000E+01,      /* J = 32 */
(PID.TID 0000.0001)                 4.200000000000000E+01,      /* J = 33 */
(PID.TID 0000.0001)                 4.600000000000000E+01,      /* J = 34 */
(PID.TID 0000.0001)                 5.000000000000000E+01,      /* J = 35 */
(PID.TID 0000.0001)                 5.400000000000000E+01,      /* J = 36 */
(PID.TID 0000.0001)                 5.800000000000000E+01,      /* J = 37 */
(PID.TID 0000.0001)                 6.200000000000000E+01,      /* J = 38 */
(PID.TID 0000.0001)                 6.600000000000000E+01,      /* J = 39 */
(PID.TID 0000.0001)                 7.000000000000000E+01,      /* J = 40 */
(PID.TID 0000.0001)                 7.400000000000000E+01,      /* J = 41 */
(PID.TID 0000.0001)                 7.800000000000000E+01,      /* J = 42 */
(PID.TID 0000.0001)                 8.200000000000000E+01,      /* J = 43 */
(PID.TID 0000.0001)                 8.700000000000000E+01       /* J = 44 */
(PID.TID 0000.0001)     ;
(PID.TID 0000.0001) rcoord =   /* P-point R coordinate (  units of r ) */
(PID.TID 0000.0001)                -2.500000000000000E+01,      /* K =  1 */
(PID.TID 0000.0001)                -8.500000000000000E+01,      /* K =  2 */
(PID.TID 0000.0001)                -1.700000000000000E+02,      /* K =  3 */
(PID.TID 0000.0001)                -2.900000000000000E+02,      /* K =  4 */
(PID.TID 0000.0001)                -4.550000000000000E+02,      /* K =  5 */
(PID.TID 0000.0001)                -6.700000000000000E+02,      /* K =  6 */
(PID.TID 0000.0001)                -9.350000000000000E+02,      /* K =  7 */
(PID.TID 0000.0001)                -1.250000000000000E+03,      /* K =  8 */
(PID.TID 0000.0001)                -1.615000000000000E+03,      /* K =  9 */
(PID.TID 0000.0001)                -2.030000000000000E+03,      /* K = 10 */
(PID.TID 0000.0001)                -2.495000000000000E+03,      /* K = 11 */
(PID.TID 0000.0001)                -3.010000000000000E+03,      /* K = 12 */
(PID.TID 0000.0001)                -3.575000000000000E+03,      /* K = 13 */
(PID.TID 0000.0001)                -4.190000000000000E+03,      /* K = 14 */
(PID.TID 0000.0001)                -4.855000000000000E+03       /* K = 15 */
(PID.TID 0000.0001)     ;
(PID.TID 0000.0001) rF =   /* W-Interf. R coordinate (  units of r ) */
(PID.TID 0000.0001)                 0.000000000000000E+00,      /* K =  1 */
(PID.TID 0000.0001)                -5.000000000000000E+01,      /* K =  2 */
(PID.TID 0000.0001)                -1.200000000000000E+02,      /* K =  3 */
(PID.TID 0000.0001)                -2.200000000000000E+02,      /* K =  4 */
(PID.TID 0000.0001)                -3.600000000000000E+02,      /* K =  5 */
(PID.TID 0000.0001)                -5.500000000000000E+02,      /* K =  6 */
(PID.TID 0000.0001)                -7.900000000000000E+02,      /* K =  7 */
(PID.TID 0000.0001)                -1.080000000000000E+03,      /* K =  8 */
(PID.TID 0000.0001)                -1.420000000000000E+03,      /* K =  9 */
(PID.TID 0000.0001)                -1.810000000000000E+03,      /* K = 10 */
(PID.TID 0000.0001)                -2.250000000000000E+03,      /* K = 11 */
(PID.TID 0000.0001)                -2.740000000000000E+03,      /* K = 12 */
(PID.TID 0000.0001)                -3.280000000000000E+03,      /* K = 13 */
(PID.TID 0000.0001)                -3.870000000000000E+03,      /* K = 14 */
(PID.TID 0000.0001)                -4.510000000000000E+03,      /* K = 15 */
(PID.TID 0000.0001)                -5.200000000000000E+03       /* K = 16 */
(PID.TID 0000.0001)     ;
(PID.TID 0000.0001) deepFacC = /* deep-model grid factor @ cell-Center (-) */
(PID.TID 0000.0001)    15 @  1.000000000000000E+00              /* K =  1: 15 */
(PID.TID 0000.0001)     ;
(PID.TID 0000.0001) deepFacF = /* deep-model grid factor @ W-Interface (-) */
(PID.TID 0000.0001)    16 @  1.000000000000000E+00              /* K =  1: 16 */
(PID.TID 0000.0001)     ;
(PID.TID 0000.0001) rVel2wUnit = /* convert units: rVel -> wSpeed (=1 if z-coord)*/
(PID.TID 0000.0001)    16 @  1.000000000000000E+00              /* K =  1: 16 */
(PID.TID 0000.0001)     ;
(PID.TID 0000.0001) wUnit2rVel = /* convert units: wSpeed -> rVel (=1 if z-coord)*/
[...]
 cg2d: Sum(rhs),rhsMax =  -1.78849990373209E-15  3.30185247603413E-01
 cg2d: Sum(rhs),rhsMax =  -2.39808173319034E-14  3.30069669046251E-01
 cg2d: Sum(rhs),rhsMax =   2.78596590241875E-15  3.30068039842192E-01
 cg2d: Sum(rhs),rhsMax =   2.80678258413047E-15  3.30070162443730E-01
 cg2d: Sum(rhs),rhsMax =  -1.56732266054505E-14  3.29980546960532E-01
 cg2d: Sum(rhs),rhsMax =  -2.44509273938931E-14  3.29977256451090E-01
 cg2d: Sum(rhs),rhsMax =  -5.95010152260045E-16  3.29997797755841E-01
 cg2d: Sum(rhs),rhsMax =  -1.21708199074533E-14  3.29896884987575E-01
 cg2d: Sum(rhs),rhsMax =   4.28945073904785E-14  3.29846216964025E-01
 cg2d: Sum(rhs),rhsMax =   6.44137521099708E-14  3.29807743123277E-01
 cg2d: Sum(rhs),rhsMax =   1.05835479269345E-14  3.29722709884924E-01
 cg2d: Sum(rhs),rhsMax =   7.95544186082964E-15  3.29755668409623E-01
 cg2d: Sum(rhs),rhsMax =  -2.93966240239030E-14  3.29786464669981E-01
 cg2d: Sum(rhs),rhsMax =   1.53748541675824E-14  3.29702123327614E-01
 cg2d: Sum(rhs),rhsMax =  -3.79331982491848E-14  3.29719503413690E-01
 cg2d: Sum(rhs),rhsMax =  -4.06549793829925E-14  3.29716024745050E-01
 cg2d: Sum(rhs),rhsMax =   2.59688104353728E-15  3.29611747705582E-01
 cg2d: Sum(rhs),rhsMax =   1.16261167359966E-14  3.29594383158636E-01
 cg2d: Sum(rhs),rhsMax =   3.18287063372225E-14  3.29615587237410E-01
 cg2d: Sum(rhs),rhsMax =  -3.20819759647151E-14  3.29536075142972E-01
 cg2d: Sum(rhs),rhsMax =  -2.15105711021124E-15  3.29570123535353E-01
 cg2d: Sum(rhs),rhsMax =   9.11250241930617E-15  3.29614978660837E-01
 cg2d: Sum(rhs),rhsMax =   2.54206378169641E-14  3.29543613891183E-01
 cg2d: Sum(rhs),rhsMax =  -3.47430417768635E-14  3.29575306842334E-01
 cg2d: Sum(rhs),rhsMax =  -3.05953179458029E-14  3.29585840125070E-01
 cg2d: Sum(rhs),rhsMax =  -4.13263173681955E-14  3.29513798787919E-01
 cg2d: Sum(rhs),rhsMax =  -3.85282084014449E-15  3.29495259910094E-01
 cg2d: Sum(rhs),rhsMax =  -2.96273422462079E-14  3.29509669366291E-01
 cg2d: Sum(rhs),rhsMax =  -3.16673770539566E-14  3.29420676380810E-01
 cg2d: Sum(rhs),rhsMax =  -1.36765598846011E-14  3.29443439698779E-01
 cg2d: Sum(rhs),rhsMax =   1.55049584282807E-14  3.29422591053089E-01
(PID.TID 0000.0001)                    cg2d_init_res =    3.20185464517518E-02
(PID.TID 0000.0001)                       cg2d_iters =   135
(PID.TID 0000.0001)                         cg2d_res =    6.48461134157346E-18
(PID.TID 0000.0001) // =======================================================
(PID.TID 0000.0001) // Begin MONITOR dynamic field statistics
(PID.TID 0000.0001) // =======================================================
(PID.TID 0000.0001) %MON time_tsnumber                =                  1095
(PID.TID 0000.0001) %MON time_secondsf                =   3.1536000000000E+07
(PID.TID 0000.0001) %MON dynstat_eta_max              =   9.6992421003398E-01
(PID.TID 0000.0001) %MON dynstat_eta_min              =  -1.9050278022075E+00
(PID.TID 0000.0001) %MON dynstat_eta_mean             =   2.1806534367903E-16
(PID.TID 0000.0001) %MON dynstat_eta_sd               =   6.5866093984909E-01
(PID.TID 0000.0001) %MON dynstat_eta_del2             =   2.0742500903649E-02
(PID.TID 0000.0001) %MON dynstat_uvel_max             =   1.7434178783237E-01
(PID.TID 0000.0001) %MON dynstat_uvel_min             =  -2.0389741819697E-01
(PID.TID 0000.0001) %MON dynstat_uvel_mean            =   3.1139043103432E-03
(PID.TID 0000.0001) %MON dynstat_uvel_sd              =   1.6990250738766E-02
(PID.TID 0000.0001) %MON dynstat_uvel_del2            =   3.8094859913588E-03
(PID.TID 0000.0001) %MON dynstat_vvel_max             =   2.2318399474815E-01
(PID.TID 0000.0001) %MON dynstat_vvel_min             =  -1.5002652331620E-01
(PID.TID 0000.0001) %MON dynstat_vvel_mean            =  -7.1577592430261E-06
(PID.TID 0000.0001) %MON dynstat_vvel_sd              =   9.2430853816279E-03
(PID.TID 0000.0001) %MON dynstat_vvel_del2            =   2.8447110925090E-03
(PID.TID 0000.0001) %MON dynstat_wvel_max             =   1.1615135686352E-04
(PID.TID 0000.0001) %MON dynstat_wvel_min             =  -1.8702342850216E-04
(PID.TID 0000.0001) %MON dynstat_wvel_mean            =   1.2336305192491E-23
(PID.TID 0000.0001) %MON dynstat_wvel_sd              =   6.5482297044288E-06
(PID.TID 0000.0001) %MON dynstat_wvel_del2            =   1.9825635311201E-06
(PID.TID 0000.0001) %MON dynstat_theta_max            =   2.9736423584734E+01
(PID.TID 0000.0001) %MON dynstat_theta_min            =  -2.3116575354973E+00
(PID.TID 0000.0001) %MON dynstat_theta_mean           =   3.7353682776617E+00
(PID.TID 0000.0001) %MON dynstat_theta_sd             =   4.3081250307065E+00
(PID.TID 0000.0001) %MON dynstat_theta_del2           =   1.2580196107968E-01
(PID.TID 0000.0001) %MON dynstat_salt_max             =   3.7355790325730E+01
(PID.TID 0000.0001) %MON dynstat_salt_min             =   2.8526555169493E+01
(PID.TID 0000.0001) %MON dynstat_salt_mean            =   3.4715121839379E+01
(PID.TID 0000.0001) %MON dynstat_salt_sd              =   2.9763775004584E-01
(PID.TID 0000.0001) %MON dynstat_salt_del2            =   2.4208064592636E-02
(PID.TID 0000.0001) %MON dynstat_sst_max              =   2.9736423584734E+01
(PID.TID 0000.0001) %MON dynstat_sst_min              =  -1.8874479432443E+00
(PID.TID 0000.0001) %MON dynstat_sst_mean             =   1.7925586329097E+01
(PID.TID 0000.0001) %MON dynstat_sst_sd               =   9.6875366808946E+00
(PID.TID 0000.0001) %MON dynstat_sst_del2             =   2.1786518298659E-01
(PID.TID 0000.0001) %MON dynstat_sss_max              =   3.7353067833452E+01
(PID.TID 0000.0001) %MON dynstat_sss_min              =   2.8526555169493E+01
(PID.TID 0000.0001) %MON dynstat_sss_mean             =   3.4766384536270E+01
(PID.TID 0000.0001) %MON dynstat_sss_sd               =   1.0494996639161E+00
(PID.TID 0000.0001) %MON dynstat_sss_del2             =   8.8498962235230E-02
(PID.TID 0000.0001) %MON extforcing_qnet_max          =   7.2098905513558E+02
(PID.TID 0000.0001) %MON extforcing_qnet_min          =  -6.5226082214218E+01
(PID.TID 0000.0001) %MON extforcing_qnet_mean         =   1.7422270116232E+02
(PID.TID 0000.0001) %MON extforcing_qnet_sd           =   7.6742663185256E+01
(PID.TID 0000.0001) %MON extforcing_qnet_del2         =   1.6508934573684E+01
(PID.TID 0000.0001) %MON extforcing_qsw_max           =   0.0000000000000E+00
(PID.TID 0000.0001) %MON extforcing_qsw_min           =  -1.0970057795913E+02
(PID.TID 0000.0001) %MON extforcing_qsw_mean          =  -1.6557483263988E+00
(PID.TID 0000.0001) %MON extforcing_qsw_sd            =   7.3163348783636E+00
(PID.TID 0000.0001) %MON extforcing_qsw_del2          =   8.0306398800376E-01
(PID.TID 0000.0001) %MON extforcing_empmr_max         =   6.9364027917934E-07
(PID.TID 0000.0001) %MON extforcing_empmr_min         =  -5.5120436541409E-07
(PID.TID 0000.0001) %MON extforcing_empmr_mean        =  -6.8022842800284E-10
(PID.TID 0000.0001) %MON extforcing_empmr_sd          =   7.4351178770737E-08
(PID.TID 0000.0001) %MON extforcing_empmr_del2        =   2.3707086065972E-08
(PID.TID 0000.0001) %MON extforcing_fu_max            =   2.7391914005220E-01
(PID.TID 0000.0001) %MON extforcing_fu_min            =  -1.9260084177299E-01
(PID.TID 0000.0001) %MON extforcing_fu_mean           =   2.3157578245843E-02
(PID.TID 0000.0001) %MON extforcing_fu_sd             =   8.1829344096669E-02
(PID.TID 0000.0001) %MON extforcing_fu_del2           =   7.5598884799375E-03
(PID.TID 0000.0001) %MON extforcing_fv_max            =   1.7437004384052E-01
(PID.TID 0000.0001) %MON extforcing_fv_min            =  -1.7135906516666E-01
(PID.TID 0000.0001) %MON extforcing_fv_mean           =   7.7873972132315E-03
(PID.TID 0000.0001) %MON extforcing_fv_sd             =   4.9962226083541E-02
(PID.TID 0000.0001) %MON extforcing_fv_del2           =   6.2850324305331E-03
(PID.TID 0000.0001) %MON advcfl_uvel_max              =   2.1712767801077E-02
(PID.TID 0000.0001) %MON advcfl_vvel_max              =   1.4453690246211E-02
(PID.TID 0000.0001) %MON advcfl_wvel_max              =   1.6798870006133E-02
(PID.TID 0000.0001) %MON advcfl_W_hf_max              =   2.2222266205572E-02
(PID.TID 0000.0001) %MON pe_b_mean                    =   5.5809055867772E-04
(PID.TID 0000.0001) %MON ke_max                       =   2.5435205396506E-02
(PID.TID 0000.0001) %MON ke_mean                      =   1.7578411569264E-04
(PID.TID 0000.0001) %MON ke_vol                       =   1.3573469601545E+18
(PID.TID 0000.0001) %MON vort_r_min                   =  -6.5147628858066E-07
(PID.TID 0000.0001) %MON vort_r_max                   =   8.5476419484983E-07
(PID.TID 0000.0001) %MON vort_a_mean                  =  -2.1224874494573E-05
(PID.TID 0000.0001) %MON vort_a_sd                    =   7.5092523477384E-05
(PID.TID 0000.0001) %MON vort_p_mean                  =  -2.4826769503814E-05
(PID.TID 0000.0001) %MON vort_p_sd                    =   1.0309645980802E-04
(PID.TID 0000.0001) %MON surfExpan_theta_mean         =   6.9203906042486E-09
(PID.TID 0000.0001) %MON surfExpan_salt_mean          =   9.6645075259782E-11
(PID.TID 0000.0001) // =======================================================
(PID.TID 0000.0001) // End MONITOR dynamic field statistics
(PID.TID 0000.0001) // =======================================================
(PID.TID 0000.0001) // Time-average data written, t-step      1095
(PID.TID 0000.0001) 
(PID.TID 0000.0001) %CHECKPOINT      1095 0000001095
(PID.TID 0000.0001)  Seconds in section "ALL                    [THE_MODEL_MAIN]":
(PID.TID 0000.0001)          User time:   224.6499926764518
(PID.TID 0000.0001)        System time:   64.91000030562282
(PID.TID 0000.0001)    Wall clock time:   302.1727139949799
(PID.TID 0000.0001)         No. starts:           1
(PID.TID 0000.0001)          No. stops:           1
(PID.TID 0000.0001)  Seconds in section "INITIALISE_FIXED       [THE_MODEL_MAIN]":
(PID.TID 0000.0001)          User time:  4.0000000968575478E-002
(PID.TID 0000.0001)        System time:  1.9999999552965164E-002
(PID.TID 0000.0001)    Wall clock time:   1.672638893127441
(PID.TID 0000.0001)         No. starts:           1
(PID.TID 0000.0001)          No. stops:           1
(PID.TID 0000.0001)  Seconds in section "THE_MAIN_LOOP          [THE_MODEL_MAIN]":
(PID.TID 0000.0001)          User time:   224.6099926754832
(PID.TID 0000.0001)        System time:   64.89000030606985
(PID.TID 0000.0001)    Wall clock time:   300.4998998641968
(PID.TID 0000.0001)         No. starts:           1
(PID.TID 0000.0001)          No. stops:           1
(PID.TID 0000.0001)  Seconds in section "INITIALISE_VARIA    [THE_MAIN_LOOP]":
(PID.TID 0000.0001)          User time:  3.9999999105930328E-002
(PID.TID 0000.0001)        System time:  3.9999999105930328E-002
(PID.TID 0000.0001)    Wall clock time:  0.7820110321044922
(PID.TID 0000.0001)         No. starts:           1
(PID.TID 0000.0001)          No. stops:           1
(PID.TID 0000.0001)  Seconds in section "MAIN LOOP           [THE_MAIN_LOOP]":
(PID.TID 0000.0001)          User time:   224.5699926763773
(PID.TID 0000.0001)        System time:   64.85000030696392
(PID.TID 0000.0001)    Wall clock time:   299.7177968025208
(PID.TID 0000.0001)         No. starts:           1
(PID.TID 0000.0001)          No. stops:           1
(PID.TID 0000.0001)  Seconds in section "FORWARD_STEP        [THE_MAIN_LOOP]":
(PID.TID 0000.0001)          User time:   224.5299917608500
(PID.TID 0000.0001)        System time:   64.85000030696392
(PID.TID 0000.0001)    Wall clock time:   299.6840808391571
(PID.TID 0000.0001)         No. starts:        1095
(PID.TID 0000.0001)          No. stops:        1095
(PID.TID 0000.0001)  Seconds in section "LOAD_FIELDS_DRIVER  [FORWARD_STEP]":
(PID.TID 0000.0001)          User time:  9.0013980865478516E-002
(PID.TID 0000.0001)        System time:  0.0000000000000000E+000
(PID.TID 0000.0001)    Wall clock time:  0.1001150608062744
(PID.TID 0000.0001)         No. starts:        1095
(PID.TID 0000.0001)          No. stops:        1095
(PID.TID 0000.0001)  Seconds in section "EXTERNAL_FLDS_LOAD [LOAD_FLDS_DRIVER]":
(PID.TID 0000.0001)          User time:  2.0011901855468750E-002
(PID.TID 0000.0001)        System time:  0.0000000000000000E+000
(PID.TID 0000.0001)    Wall clock time:  3.3697605133056641E-002
(PID.TID 0000.0001)         No. starts:        1095
(PID.TID 0000.0001)          No. stops:        1095
(PID.TID 0000.0001)  Seconds in section "CPL_EXPORT-IMPORT  [FORWARD_STEP]":
(PID.TID 0000.0001)          User time:   27.11001498997211
(PID.TID 0000.0001)        System time:   64.62999407947063
(PID.TID 0000.0001)    Wall clock time:   91.70710277557373
(PID.TID 0000.0001)         No. starts:        1095
(PID.TID 0000.0001)          No. stops:        1095
(PID.TID 0000.0001)  Seconds in section "DO_ATMOSPHERIC_PHYS [FORWARD_STEP]":
(PID.TID 0000.0001)          User time:  2.9991149902343750E-002
(PID.TID 0000.0001)        System time:  9.9983215332031250E-003
(PID.TID 0000.0001)    Wall clock time:  3.3817768096923828E-002
(PID.TID 0000.0001)         No. starts:        1095
(PID.TID 0000.0001)          No. stops:        1095
(PID.TID 0000.0001)  Seconds in section "DO_OCEANIC_PHYS     [FORWARD_STEP]":
(PID.TID 0000.0001)          User time:   36.38996386528015
(PID.TID 0000.0001)        System time:  9.9999904632568359E-003
(PID.TID 0000.0001)    Wall clock time:   36.33576869964600
(PID.TID 0000.0001)         No. starts:        1095
(PID.TID 0000.0001)          No. stops:        1095
(PID.TID 0000.0001)  Seconds in section "DYNAMICS            [FORWARD_STEP]":
(PID.TID 0000.0001)          User time:   74.24012559652328
(PID.TID 0000.0001)        System time:  0.0000000000000000E+000
(PID.TID 0000.0001)    Wall clock time:   74.36298584938049
(PID.TID 0000.0001)         No. starts:        1095
(PID.TID 0000.0001)          No. stops:        1095
(PID.TID 0000.0001)  Seconds in section "ZONAL_FILT_UV       [FORWARD_STEP]":
(PID.TID 0000.0001)          User time:   1.120025396347046
(PID.TID 0000.0001)        System time:  1.0002136230468750E-002
(PID.TID 0000.0001)    Wall clock time:   1.017587661743164
(PID.TID 0000.0001)         No. starts:        1095
(PID.TID 0000.0001)          No. stops:        1095
(PID.TID 0000.0001)  Seconds in section "SOLVE_FOR_PRESSURE  [FORWARD_STEP]":
(PID.TID 0000.0001)          User time:   11.50992059707642
(PID.TID 0000.0001)        System time:  1.0002136230468750E-002
(PID.TID 0000.0001)    Wall clock time:   11.61043882369995
(PID.TID 0000.0001)         No. starts:        1095
(PID.TID 0000.0001)          No. stops:        1095
(PID.TID 0000.0001)  Seconds in section "MOM_CORRECTION_STEP [FORWARD_STEP]":
(PID.TID 0000.0001)          User time:   4.019812583923340
(PID.TID 0000.0001)        System time:  1.0002136230468750E-002
(PID.TID 0000.0001)    Wall clock time:   4.328516721725464
(PID.TID 0000.0001)         No. starts:        1095
(PID.TID 0000.0001)          No. stops:        1095
(PID.TID 0000.0001)  Seconds in section "UPDATE_ETAH         [FORWARD_STEP]":
(PID.TID 0000.0001)          User time:  3.0000686645507813E-002
(PID.TID 0000.0001)        System time:  0.0000000000000000E+000
(PID.TID 0000.0001)    Wall clock time:  7.0259094238281250E-002
(PID.TID 0000.0001)         No. starts:        1095
(PID.TID 0000.0001)          No. stops:        1095
(PID.TID 0000.0001)  Seconds in section "BLOCKING_EXCHANGES  [FORWARD_STEP]":
(PID.TID 0000.0001)          User time:   1.079983472824097
(PID.TID 0000.0001)        System time:  9.9983215332031250E-003
(PID.TID 0000.0001)    Wall clock time:  0.9528679847717285
(PID.TID 0000.0001)         No. starts:        2190
(PID.TID 0000.0001)          No. stops:        2190
(PID.TID 0000.0001)  Seconds in section "THERMODYNAMICS      [FORWARD_STEP]":
(PID.TID 0000.0001)          User time:   56.26038396358490
(PID.TID 0000.0001)        System time:  2.9998540878295898E-002
(PID.TID 0000.0001)    Wall clock time:   56.22431039810181
(PID.TID 0000.0001)         No. starts:        1095
(PID.TID 0000.0001)          No. stops:        1095
(PID.TID 0000.0001)  Seconds in section "TRC_CORRECTION_STEP [FORWARD_STEP]":
(PID.TID 0000.0001)          User time:   1.999843358993530
(PID.TID 0000.0001)        System time:  3.0004262924194336E-002
(PID.TID 0000.0001)    Wall clock time:   1.891501426696777
(PID.TID 0000.0001)         No. starts:        1095
(PID.TID 0000.0001)          No. stops:        1095
(PID.TID 0000.0001)  Seconds in section "ZONAL_FILT_TS      [TRC_CORR_STEP]":
(PID.TID 0000.0001)          User time:  0.9099552631378174
(PID.TID 0000.0001)        System time:  3.0004262924194336E-002
(PID.TID 0000.0001)    Wall clock time:  0.7787849903106689
(PID.TID 0000.0001)         No. starts:        1095
(PID.TID 0000.0001)          No. stops:        1095
(PID.TID 0000.0001)  Seconds in section "DO_STATEVARS_TAVE   [FORWARD_STEP]":
(PID.TID 0000.0001)          User time:   9.729934692382813
(PID.TID 0000.0001)        System time:  0.0000000000000000E+000
(PID.TID 0000.0001)    Wall clock time:   9.916860818862915
(PID.TID 0000.0001)         No. starts:        1095
(PID.TID 0000.0001)          No. stops:        1095
(PID.TID 0000.0001)  Seconds in section "MONITOR             [FORWARD_STEP]":
(PID.TID 0000.0001)          User time:  5.9997558593750000E-002
(PID.TID 0000.0001)        System time:  0.0000000000000000E+000
(PID.TID 0000.0001)    Wall clock time:  4.9573183059692383E-002
(PID.TID 0000.0001)         No. starts:        1095
(PID.TID 0000.0001)          No. stops:        1095
(PID.TID 0000.0001)  Seconds in section "DO_THE_MODEL_IO     [FORWARD_STEP]":
(PID.TID 0000.0001)          User time:  9.9990844726562500E-002
(PID.TID 0000.0001)        System time:  4.0000915527343750E-002
(PID.TID 0000.0001)    Wall clock time:   8.099564790725708
(PID.TID 0000.0001)         No. starts:        1095
(PID.TID 0000.0001)          No. stops:        1095
(PID.TID 0000.0001)  Seconds in section "DO_WRITE_PICKUP     [FORWARD_STEP]":
(PID.TID 0000.0001)          User time:  1.9989013671875000E-002
(PID.TID 0000.0001)        System time:  2.0004272460937500E-002
(PID.TID 0000.0001)    Wall clock time:   2.370927095413208
(PID.TID 0000.0001)         No. starts:        1095
(PID.TID 0000.0001)          No. stops:        1095
(PID.TID 0000.0001)  Seconds in section "DO_WRITE_PICKUP        [THE_MODEL_MAIN]":
(PID.TID 0000.0001)          User time:  0.0000000000000000E+000
(PID.TID 0000.0001)        System time:  0.0000000000000000E+000
(PID.TID 0000.0001)    Wall clock time:  3.1948089599609375E-005
(PID.TID 0000.0001)         No. starts:           1
(PID.TID 0000.0001)          No. stops:           1
(PID.TID 0000.0001) // ======================================================
(PID.TID 0000.0001) // Tile <-> Tile communication statistics
(PID.TID 0000.0001) // ======================================================
(PID.TID 0000.0001) // o Tile number: 000001
(PID.TID 0000.0001) //         No. X exchanges =         319252
(PID.TID 0000.0001) //            Max. X spins =              1
(PID.TID 0000.0001) //            Min. X spins =              1
(PID.TID 0000.0001) //          Total. X spins =         319252
(PID.TID 0000.0001) //            Avg. X spins =       1.00E+00
(PID.TID 0000.0001) //         No. Y exchanges =         319252
(PID.TID 0000.0001) //            Max. Y spins =              1
(PID.TID 0000.0001) //            Min. Y spins =              1
(PID.TID 0000.0001) //          Total. Y spins =         319252
(PID.TID 0000.0001) //            Avg. Y spins =       1.00E+00
(PID.TID 0000.0001) // o Thread number: 000001
(PID.TID 0000.0001) //            No. barriers =        1824925
(PID.TID 0000.0001) //      Max. barrier spins =              1
(PID.TID 0000.0001) //      Min. barrier spins =              1
(PID.TID 0000.0001) //     Total barrier spins =        1824925
(PID.TID 0000.0001) //      Avg. barrier spins =       1.00E+00
