(PID.TID 0000.0001) 
(PID.TID 0000.0001) // ======================================================
(PID.TID 0000.0001) //                      MITgcm UV
(PID.TID 0000.0001) //                      =========
(PID.TID 0000.0001) // ======================================================
(PID.TID 0000.0001) // execution environment starting up...
(PID.TID 0000.0001) // Run starting Wed Apr  1 14:19:48 1998
(PID.TID 0000.0001) // on melville.lcs.mit.edu
(PID.TID 0000.0001) // account cnh
(PID.TID 0000.0001) // MITgcm UV Release: $Name:  $
(PID.TID 0000.0001) 
(PID.TID 0000.0001) // =======================================================
(PID.TID 0000.0001) // Execution Environment parameter file "eedata"
(PID.TID 0000.0001) // =======================================================
(PID.TID 0000.0001) ># Example "eedata" file
(PID.TID 0000.0001) ># Lines beginning "#" are comments
(PID.TID 0000.0001) ># nTx - No. threads per process in X
(PID.TID 0000.0001) ># nTy - No. threads per process in Y
(PID.TID 0000.0001) > &EEPARMS
(PID.TID 0000.0001) > &
(PID.TID 0000.0001) ># Note: Some systems use & as the
(PID.TID 0000.0001) ># namelist terminator. Other systems
(PID.TID 0000.0001) ># use a / character (as shown here).
(PID.TID 0000.0001) 
(PID.TID 0000.0001) // =======================================================
(PID.TID 0000.0001) // Computational Grid Specification ( see files "SIZE.h" )
(PID.TID 0000.0001) //                                  ( and "eedata"       )
(PID.TID 0000.0001) // =======================================================
(PID.TID 0000.0001)      nPx =    1 ; /* No. processes in X */
(PID.TID 0000.0001)      nPy =    1 ; /* No. processes in Y */
(PID.TID 0000.0001)      nSx =    1 ; /* No. tiles in X per process */
(PID.TID 0000.0001)      nSy =    1 ; /* No. tiles in Y per process */
(PID.TID 0000.0001)      sNx =  128 ; /* Tile size in X */
(PID.TID 0000.0001)      sNy =   64 ; /* Tile size in Y */
(PID.TID 0000.0001)      OLx =    3 ; /* Tile overlap distance in X */
(PID.TID 0000.0001)      OLy =    3 ; /* Tile overlap distance in Y */
(PID.TID 0000.0001)      nTx =    1 ; /* No. threads in X per process */
(PID.TID 0000.0001)      nTy =    1 ; /* No. threads in Y per process */
(PID.TID 0000.0001)       Nr =    5 ; /* No. levels in the vertical   */
(PID.TID 0000.0001)       nX =  128 ; /* Total domain size in X ( = nPx*nSx*sNx ) */
(PID.TID 0000.0001)       nY =   64 ; /* Total domain size in Y ( = nPy*nSy*sNy ) */
(PID.TID 0000.0001)   nTiles =    1 ; /* Total no. tiles per process ( = nSx*nSy ) */
(PID.TID 0000.0001)   nProcs =    1 ; /* Total no. processes ( = nPx*nPy ) */
(PID.TID 0000.0001) nThreads =    1 ; /* Total no. threads per process ( = nTx*nTy ) */
(PID.TID 0000.0001) usingMPI =    F ; /* Flag used to control whether MPI is in use */
(PID.TID 0000.0001)                   /*  note: To execute a program with MPI calls */
(PID.TID 0000.0001)                   /*  it must be launched appropriately e.g     */
(PID.TID 0000.0001)                   /*  "mpirun -np 64 ......"                    */
(PID.TID 0000.0001) 
(PID.TID 0000.0001) // ======================================================
(PID.TID 0000.0001) // Mapping of tiles to threads
(PID.TID 0000.0001) // ======================================================
(PID.TID 0000.0001) // -o- Thread   1, tiles (   1:   1,   1:   1)
(PID.TID 0000.0001) 
(PID.TID 0000.0001) // ======================================================
(PID.TID 0000.0001) // Tile <-> Tile connectvity table
(PID.TID 0000.0001) // ======================================================
(PID.TID 0000.0001) // Tile number: 000001 (process no. = 000001)
(PID.TID 0000.0001) //        WEST: Tile = 000001, Process = 000001, Comm = put
(PID.TID 0000.0001) //                bi = 000001, bj = 000001
(PID.TID 0000.0001) //        EAST: Tile = 000001, Process = 000001, Comm = put
(PID.TID 0000.0001) //                bi = 000001, bj = 000001
(PID.TID 0000.0001) //       SOUTH: Tile = 000001, Process = 000001, Comm = put
(PID.TID 0000.0001) //                bi = 000001, bj = 000001
(PID.TID 0000.0001) //       NORTH: Tile = 000001, Process = 000001, Comm = put
(PID.TID 0000.0001) //                bi = 000001, bj = 000001
(PID.TID 0000.0001) 
(PID.TID 0000.0001) // =======================================================
(PID.TID 0000.0001) // Model parameter file "data"
(PID.TID 0000.0001) // =======================================================
(PID.TID 0000.0001) ># ====================
(PID.TID 0000.0001) ># | Model parameters |
(PID.TID 0000.0001) ># ====================
(PID.TID 0000.0001) >#
(PID.TID 0000.0001) ># Continuous equation parameters
(PID.TID 0000.0001) > &PARM01
(PID.TID 0000.0001) > tRef=281.089, 289.321, 307.191, 331.377, 432.413,
(PID.TID 0000.0001) > sRef=5*0.,
(PID.TID 0000.0001) > viscAr=0.E3,
(PID.TID 0000.0001) > viscAh=0.E6,
(PID.TID 0000.0001) > viscA4=0.E17,
(PID.TID 0000.0001) > no_slip_sides=.FALSE.,
(PID.TID 0000.0001) > no_slip_bottom=.FALSE.,
(PID.TID 0000.0001) > diffKhT=0.E3,
(PID.TID 0000.0001) > diffKrT=0.,
(PID.TID 0000.0001) > diffK4T=0.E17,
(PID.TID 0000.0001) > diffKrS=0.E2,
(PID.TID 0000.0001) > diffKhS=0.E3,
(PID.TID 0000.0001) > diffK4S=0.E17,
(PID.TID 0000.0001) > buoyancyRelation='ATMOSPHERIC',
(PID.TID 0000.0001) > eosType='IDEALGAS',
(PID.TID 0000.0001) > Integr_GeoPot=2,
(PID.TID 0000.0001) > gravity=9.81,
(PID.TID 0000.0001) > rhonil=1.0,
(PID.TID 0000.0001) > rhoConst=1.0,
(PID.TID 0000.0001) > rigidLid=.FALSE.,
(PID.TID 0000.0001) > implicitFreeSurface=.TRUE.,
(PID.TID 0000.0001) > staggerTimeStep=.TRUE.,
(PID.TID 0000.0001) > nonHydrostatic=.FALSE.,
(PID.TID 0000.0001) > readBinaryPrec=64,
(PID.TID 0000.0001) > writeBinaryPrec=64,
(PID.TID 0000.0001) > hFacMin=1.0,
(PID.TID 0000.0001) > zonal_filt_lat=45.0,
(PID.TID 0000.0001) > saltAdvScheme=3,
(PID.TID 0000.0001) > &
(PID.TID 0000.0001) >
(PID.TID 0000.0001) ># Elliptic solver parameters
(PID.TID 0000.0001) > &PARM02
(PID.TID 0000.0001) > cg2dMaxIters=200,
(PID.TID 0000.0001) >#cg2dTargetResidual=1.E-12,
(PID.TID 0000.0001) > cg2dTargetResWunit=1.E-17,
(PID.TID 0000.0001) > &
(PID.TID 0000.0001) >
(PID.TID 0000.0001) ># Time stepping parameters
(PID.TID 0000.0001) > &PARM03
(PID.TID 0000.0001) > niter0=17280,
(PID.TID 0000.0001) > nTimeSteps=10,
(PID.TID 0000.0001) >#endTime=31104000.,
(PID.TID 0000.0001) > deltaT=450.0,
(PID.TID 0000.0001) > abEps=0.1,
(PID.TID 0000.0001) > cAdjFreq=0.,
(PID.TID 0000.0001) > pChkptFreq=2592000.0,
(PID.TID 0000.0001) > chkptFreq=0.0,
(PID.TID 0000.0001) > dumpFreq=2592000.0,
(PID.TID 0000.0001) > taveFreq=2592000.0,
(PID.TID 0000.0001) > monitorFreq=1.0,
(PID.TID 0000.0001) > &
(PID.TID 0000.0001) >
(PID.TID 0000.0001) ># Gridding parameters
(PID.TID 0000.0001) > &PARM04
(PID.TID 0000.0001) > usingCartesianGrid=.FALSE.,
(PID.TID 0000.0001) > usingSphericalPolarGrid=.TRUE.,
(PID.TID 0000.0001) > delX=128*2.8125,
(PID.TID 0000.0001) > delY=64*2.8125,
(PID.TID 0000.0001) > delR=1.E4, 2.5E4, 3.E4, 2.E4, 1.5E4,
(PID.TID 0000.0001) > Ro_SeaLevel=1.E5,
(PID.TID 0000.0001) > groundAtK1=.TRUE.,
(PID.TID 0000.0001) > phiMin=-90.,
(PID.TID 0000.0001) > rSphere=6370.E3,
(PID.TID 0000.0001) > &
(PID.TID 0000.0001) >
(PID.TID 0000.0001) ># Input datasets
(PID.TID 0000.0001) > &PARM05
(PID.TID 0000.0001) > bathyFile='orography_fullcell.bin',
(PID.TID 0000.0001) > &
(PID.TID 0000.0001) 
(PID.TID 0000.0001) %MON XC_max                       =   3.5859375000000E+02
(PID.TID 0000.0001) %MON XC_min                       =   1.4062500000000E+00
(PID.TID 0000.0001) %MON XC_mean                      =   1.8000000000000E+02
(PID.TID 0000.0001) %MON XC_sd                        =   1.0391987692599E+02
(PID.TID 0000.0001) %MON XG_max                       =   3.5718750000000E+02
(PID.TID 0000.0001) %MON XG_min                       =   2.8125000000000E+00
(PID.TID 0000.0001) %MON XG_mean                      =   1.8000000000000E+02
(PID.TID 0000.0001) %MON XG_sd                        =   1.0310795313651E+02
(PID.TID 0000.0001) %MON DXC_max                      =   3.1259246843155E+05
(PID.TID 0000.0001) %MON DXC_min                      =   7.6737143816223E+03
(PID.TID 0000.0001) %MON DXC_mean                     =   1.9908248704234E+05
(PID.TID 0000.0001) %MON DXC_sd                       =   9.6190602240068E+04
(PID.TID 0000.0001) %MON DXF_max                      =   3.1259246843155E+05
(PID.TID 0000.0001) %MON DXF_min                      =   7.6737143816223E+03
(PID.TID 0000.0001) %MON DXF_mean                     =   1.9908248704234E+05
(PID.TID 0000.0001) %MON DXF_sd                       =   9.6190602240068E+04
(PID.TID 0000.0001) %MON DXG_max                      =   3.1268664380261E+05
(PID.TID 0000.0001) %MON DXG_min                      =   1.5342806404640E+04
(PID.TID 0000.0001) %MON DXG_mean                     =   2.0218161485138E+05
(PID.TID 0000.0001) %MON DXG_sd                       =   9.3728538420912E+04
(PID.TID 0000.0001) %MON DXV_max                      =   3.1268664380261E+05
(PID.TID 0000.0001) %MON DXV_min                      =   1.5342806404640E+04
(PID.TID 0000.0001) %MON DXV_mean                     =   2.0218161485138E+05
(PID.TID 0000.0001) %MON DXV_sd                       =   9.3728538420912E+04
(PID.TID 0000.0001) %MON YC_max                       =   8.8593750000000E+01
(PID.TID 0000.0001) %MON YC_min                       =  -8.8593750000000E+01
(PID.TID 0000.0001) %MON YC_mean                      =   0.0000000000000E+00
(PID.TID 0000.0001) %MON YC_sd                        =   5.1955180880375E+01
(PID.TID 0000.0001) %MON YG_max                       =   8.7187500000000E+01
(PID.TID 0000.0001) %MON YG_min                       =  -9.0000000000000E+01
(PID.TID 0000.0001) %MON YG_mean                      =  -1.4285714285714E+00
(PID.TID 0000.0001) %MON YG_sd                        =   5.2365595692639E+01
(PID.TID 0000.0001) %MON DYC_max                      =   3.1268664380261E+05
(PID.TID 0000.0001) %MON DYC_min                      =   3.1268664380261E+05
(PID.TID 0000.0001) %MON DYC_mean                     =   3.1268664380263E+05
(PID.TID 0000.0001) %MON DYC_sd                       =   2.4156179279089E-08
(PID.TID 0000.0001) %MON DYF_max                      =   3.1268664380261E+05
(PID.TID 0000.0001) %MON DYF_min                      =   3.1268664380261E+05
(PID.TID 0000.0001) %MON DYF_mean                     =   3.1268664380263E+05
(PID.TID 0000.0001) %MON DYF_sd                       =   2.4156179279089E-08
(PID.TID 0000.0001) %MON DYG_max                      =   3.1268664380261E+05
(PID.TID 0000.0001) %MON DYG_min                      =   3.1268664380261E+05
(PID.TID 0000.0001) %MON DYG_mean                     =   3.1268664380263E+05
(PID.TID 0000.0001) %MON DYG_sd                       =   2.4156179279089E-08
(PID.TID 0000.0001) %MON DYU_max                      =   3.1268664380261E+05
(PID.TID 0000.0001) %MON DYU_min                      =   3.1268664380261E+05
(PID.TID 0000.0001) %MON DYU_mean                     =   3.1268664380263E+05
(PID.TID 0000.0001) %MON DYU_sd                       =   2.4156179279089E-08
(PID.TID 0000.0001) %MON RA_max                       =   9.7733676797555E+10
(PID.TID 0000.0001) %MON RA_min                       =   2.3992270990190E+09
(PID.TID 0000.0001) %MON RA_mean                      =   6.2244185031957E+10
(PID.TID 0000.0001) %MON RA_sd                        =   3.0074496923945E+10
(PID.TID 0000.0001) %MON RAW_max                      =   9.7733676797555E+10
(PID.TID 0000.0001) %MON RAW_min                      =   2.3992270990190E+09
(PID.TID 0000.0001) %MON RAW_mean                     =   6.2244185031957E+10
(PID.TID 0000.0001) %MON RAW_sd                       =   3.0074496923945E+10
(PID.TID 0000.0001) %MON RAS_max                      =   9.7763121221868E+10
(PID.TID 0000.0001) %MON RAS_min                      =   4.7970089933466E+09
(PID.TID 0000.0001) %MON RAS_mean                     =   6.3213143616158E+10
(PID.TID 0000.0001) %MON RAS_sd                       =   2.9304719741649E+10
(PID.TID 0000.0001) %MON RAZ_max                      =   9.7763121221868E+10
(PID.TID 0000.0001) %MON RAZ_min                      =   4.7970089933466E+09
(PID.TID 0000.0001) %MON RAZ_mean                     =   6.3213143616158E+10
(PID.TID 0000.0001) %MON RAZ_sd                       =   2.9304719741649E+10
(PID.TID 0000.0001)  MDSREADFIELD: opening global file: orography_fullcell.bin
(PID.TID 0000.0001) // =======================================================
(PID.TID 0000.0001) // Field Model R_low (ini_masks_etc) at iteration          1
(PID.TID 0000.0001) // CMIN =          1.000000000000000E+32
(PID.TID 0000.0001) // CMAX =         -1.000000000000000E+32
(PID.TID 0000.0001) // CINT =          0.000000000000000E+00
(PID.TID 0000.0001) // SYMBOLS (CMIN->CMAX): -abcdefghijklmnopqrstuvwxyz+
(PID.TID 0000.0001) //                  0.0: .
(PID.TID 0000.0001) // RANGE I (Lo:Hi:Step):(  -2: 131:   1)
(PID.TID 0000.0001) // RANGE J (Lo:Hi:Step):(  67:  -2:  -1)
(PID.TID 0000.0001) // RANGE K (Lo:Hi:Step):(   1:   1:   1)
(PID.TID 0000.0001) // =======================================================
(PID.TID 0000.0001) K =   1
(PID.TID 0000.0001) //                I=7       I=17      I=27      I=37      I=47      I=57      I=67      I=77      I=87      I=97      I=107     I=117     I=127
(PID.TID 0000.0001) // |--J--|**0123456|890123456|890123456|890123456|890123456|890123456|890123456|890123456|890123456|890123456|890123456|890123456|890123456|8901
(PID.TID 0000.0001) //     67 ......................................................................................................................................
(PID.TID 0000.0001) //     66 ......................................................................................................................................
(PID.TID 0000.0001) //     65 ......................................................................................................................................
(PID.TID 0000.0001) //     64 ......................................................................................................................................
(PID.TID 0000.0001) //     63 ......................................................................................................................................
(PID.TID 0000.0001) //     62 ......................................................................................................................................
(PID.TID 0000.0001) //     61 ......................................................................................................................................
(PID.TID 0000.0001) //     60 ......................................................................................................................................
(PID.TID 0000.0001) //     59 ......................................................................................................................................
(PID.TID 0000.0001) //     58 ......................................................................................................................................
(PID.TID 0000.0001) //     57 ......................................................................................................................................
(PID.TID 0000.0001) //     56 ......................................................................................................................................
(PID.TID 0000.0001) //     55 ......................................................................................................................................
(PID.TID 0000.0001) //     54 ......................................................................................................................................
(PID.TID 0000.0001) //     53 ......................................................................................................................................
(PID.TID 0000.0001) //     52 ......................................................................................................................................
(PID.TID 0000.0001) //     51 ......................................................................................................................................
(PID.TID 0000.0001) //     50 ......................................................................................................................................
(PID.TID 0000.0001) //     49 ......................................................................................................................................
(PID.TID 0000.0001) //     48 ......................................................................................................................................
(PID.TID 0000.0001) //     47 ......................................................................................................................................
(PID.TID 0000.0001) //     46 ......................................................................................................................................
(PID.TID 0000.0001) //     45 ......................................................................................................................................
(PID.TID 0000.0001) //     44 ......................................................................................................................................
(PID.TID 0000.0001) //     43 ......................................................................................................................................
(PID.TID 0000.0001) //     42 ......................................................................................................................................
(PID.TID 0000.0001) //     41 ......................................................................................................................................
(PID.TID 0000.0001) //     40 ......................................................................................................................................
(PID.TID 0000.0001) //     39 ......................................................................................................................................
(PID.TID 0000.0001) //     38 ......................................................................................................................................
(PID.TID 0000.0001) //     37 ......................................................................................................................................
(PID.TID 0000.0001) //     36 ......................................................................................................................................
(PID.TID 0000.0001) //     35 ......................................................................................................................................
(PID.TID 0000.0001) //     34 ......................................................................................................................................
(PID.TID 0000.0001) //     33 ......................................................................................................................................
(PID.TID 0000.0001) //     32 ......................................................................................................................................
(PID.TID 0000.0001) //     31 ......................................................................................................................................
(PID.TID 0000.0001) //     30 ......................................................................................................................................
(PID.TID 0000.0001) //     29 ......................................................................................................................................
(PID.TID 0000.0001) //     28 ......................................................................................................................................
(PID.TID 0000.0001) //     27 ......................................................................................................................................
(PID.TID 0000.0001) //     26 ......................................................................................................................................
(PID.TID 0000.0001) //     25 ......................................................................................................................................
(PID.TID 0000.0001) //     24 ......................................................................................................................................
(PID.TID 0000.0001) //     23 ......................................................................................................................................
(PID.TID 0000.0001) //     22 ......................................................................................................................................
(PID.TID 0000.0001) //     21 ......................................................................................................................................
(PID.TID 0000.0001) //     20 ......................................................................................................................................
(PID.TID 0000.0001) //     19 ......................................................................................................................................
(PID.TID 0000.0001) //     18 ......................................................................................................................................
(PID.TID 0000.0001) //     17 ......................................................................................................................................
(PID.TID 0000.0001) //     16 ......................................................................................................................................
(PID.TID 0000.0001) //     15 ......................................................................................................................................
(PID.TID 0000.0001) //     14 ......................................................................................................................................
(PID.TID 0000.0001) //     13 ......................................................................................................................................
(PID.TID 0000.0001) //     12 ......................................................................................................................................
(PID.TID 0000.0001) //     11 ......................................................................................................................................
(PID.TID 0000.0001) //     10 ......................................................................................................................................
(PID.TID 0000.0001) //      9 ......................................................................................................................................
(PID.TID 0000.0001) //      8 ......................................................................................................................................
(PID.TID 0000.0001) //      7 ......................................................................................................................................
(PID.TID 0000.0001) //      6 ......................................................................................................................................
(PID.TID 0000.0001) //      5 ......................................................................................................................................
(PID.TID 0000.0001) //      4 ......................................................................................................................................
(PID.TID 0000.0001) //      3 ......................................................................................................................................
(PID.TID 0000.0001) //      2 ......................................................................................................................................
(PID.TID 0000.0001) //      1 ......................................................................................................................................
(PID.TID 0000.0001) //      0 ......................................................................................................................................
(PID.TID 0000.0001) //     -1 ......................................................................................................................................
(PID.TID 0000.0001) //     -2 ......................................................................................................................................
(PID.TID 0000.0001) // =======================================================
(PID.TID 0000.0001) // END OF FIELD                                          =
(PID.TID 0000.0001) // =======================================================
(PID.TID 0000.0001) 
(PID.TID 0000.0001) // =======================================================
(PID.TID 0000.0001) // Field Model Ro_surf (ini_masks_etc) at iteration          1
(PID.TID 0000.0001) // CMIN =          6.500000000000000E+04
(PID.TID 0000.0001) // CMAX =          1.000000000000000E+05
(PID.TID 0000.0001) // CINT =          1.296296296296296E+03
(PID.TID 0000.0001) // SYMBOLS (CMIN->CMAX): -abcdefghijklmnopqrstuvwxyz+
(PID.TID 0000.0001) //                  0.0: .
(PID.TID 0000.0001) // RANGE I (Lo:Hi:Step):(  -2: 131:   1)
(PID.TID 0000.0001) // RANGE J (Lo:Hi:Step):(  67:  -2:  -1)
(PID.TID 0000.0001) // RANGE K (Lo:Hi:Step):(   1:   1:   1)
(PID.TID 0000.0001) // =======================================================
(PID.TID 0000.0001) K =   1
(PID.TID 0000.0001) //                I=7       I=17      I=27      I=37      I=47      I=57      I=67      I=77      I=87      I=97      I=107     I=117     I=127
(PID.TID 0000.0001) // |--J--|**0123456|890123456|890123456|890123456|890123456|890123456|890123456|890123456|890123456|890123456|890123456|890123456|890123456|8901
(PID.TID 0000.0001) //     67 ......................................................................................................................................
(PID.TID 0000.0001) //     66 ......................................................................................................................................
(PID.TID 0000.0001) //     65 ......................................................................................................................................
(PID.TID 0000.0001) //     64 ++++++++++++++++++++++++++++++++++++++++++++++++++++++++++++++++++++++++++++++++++++++++++++++++++++++++++++++++++++++++++++++++++++++
(PID.TID 0000.0001) //     63 ++++++++++++++++++++++++++++++++++++++++++++++++++++++++++++++++++++++++++++++++++++++++++++++++++++++++++++++++++++++++++++++++++++++
(PID.TID 0000.0001) //     62 +++++++++++++++++++++++++++++++++++++++++++++++++++++++++++++++++++++++++++++++++++++++++++++++++++++++ss+++++++++++++s+++++++++++++++
(PID.TID 0000.0001) //     61 +++++++++++++++++++++++++++++++++++++++++++++++++++++++++++++++++++++++++++++++++++++++++++++++++++sssssss++ssssssssssssssss++++++++++
(PID.TID 0000.0001) //     60 +++++++++++++++++++++++++++++++++++++++++++++++++++++++++++++++++++++++++++++++++++++++++++++++++++++ss+++sssss---------sss+++++++++++
(PID.TID 0000.0001) //     59 +++++++++++++++++++++++++++++++++++++++++++++++++++++++++++++++++++++++++++++++++++++++++++++++++++++++++++++++ss--------sss++++++++++
(PID.TID 0000.0001) //     58 ++++++++++++++++++++++++++++++++++++++++++++++++++++++++++++++++++++++++++++++++++++++++++++++++++++++++++++++++ss------ss++++++++++++
(PID.TID 0000.0001) //     57 +++++++++ss++++++++++++++++++++++++ssss+++++++++ss+ss++++++++++++s++++++++ssssssss+++++++++++++++++++++++++++++++ss----ss+++++++++++++
(PID.TID 0000.0001) //     56 ++++++++ss++++++++++++++++++++++++++sssssss+++++ssssssss+++sssss++++++++++++ss++sssss++++++++++++++++++++++++++++s--ss++++++++++++++++
(PID.TID 0000.0001) //     55 ++++++sss+++++++++++++++++++++++++++ssss++++++++++ssssssssssss++s+++++++++++sssssssssss++++++++++++++++++++++++++s-s++++++++++++++++++
(PID.TID 0000.0001) //     54 +++++ss+++++++++++++++++++++++++++++s++ssssss++s+++sssssss++++++++++++++++++s++sssssssss+++++s+++++++++++++++++++++++++++++++++++++++s
(PID.TID 0000.0001) //     53 ++++++++++++++++++++++++++++++++++++++++sssssssssssss++++++++++++++++++++++++++++++ssssssss+ss++++++++++++++++++++++++++++++++++++++++
(PID.TID 0000.0001) //     52 ++++++++++++++++++++++++++++++++++sssssssssssssssss++++++++s+++++++++++++++++++++++++sssssssss+++++++++++ssss+++++++++++++++++++++++++
(PID.TID 0000.0001) //     51 +++++++++++++++++++++++++++++++++sssssssssssssss+sss++++++++++++++++++++++++++++++++++sssssssss++++++++++ssss+++++++++++++++++++++++++
(PID.TID 0000.0001) //     50 +++++++ssss++++++++++++++++sssssss-ss-sssssssss+++++s++++++++++++++++++++++++++++++++++sssssssss++++++++++++++++++++++++++++++++++++++
(PID.TID 0000.0001) //     49 ++++sssss++ss+++++++++++++++sssssssss--ssssssss++++s+++++++++++++++++++++++++++++++++++sssssssss++++++++++++++++++++++++++++++++++++ss
(PID.TID 0000.0001) //     48 +++s+++++sss+++++sss+++++++ssss--sssssssssssss++ss+++++++++++++++++++++++++++++++++++++ssss-sssss++++++++++++++++++++++++++++++++++s++
(PID.TID 0000.0001) //     47 ssss++++++s+++ssssss+++++++ss--sssssssssssssss+ss++++++++++++++++++++++++++++++++++++++sssss--sss+++++++++++++++++++++++++++++++ssss++
(PID.TID 0000.0001) //     46 +s+++++++++++sssssss+++s++ss---ss-------ssss++++++++++++++++++++++++++++++++++++++++++++ssss--ss++++++s++++++++++++++++++++++++++s++++
(PID.TID 0000.0001) //     45 +++sss++++++++++s++sssssss--------------sss+++++++++++++++++++++++++++++++++++++++++++++ssssssss+++++s+++++++++++++++++++++++++++++sss
(PID.TID 0000.0001) //     44 sssss+++++++++++ss++s-ssssss+s----------sss++++++++++++++++++++++++++++++++++++++++++++++++sssss++++++++++++++++++++++++++++++++sssss+
(PID.TID 0000.0001) //     43 ssss++ss+++++++ssss++sssssss+++s--------+ss++++++++++++++++++++++++++++++++++++++++++++++++ssss+++++++++++++++++++++++++++++++++ssss++
(PID.TID 0000.0001) //     42 ++++sssss+++++++ssss+++ssss++++++sssss--sss+s+++++++++++++++++++++++++++++++++++++++++++++++sss++++++++++++++++++++++++++++++++s++++ss
(PID.TID 0000.0001) //     41 ++++sssssssss++++sss+++++++++ss+ss++sssss++++++++++++++++++++++++++++++++++++++++++++++++++++sss++++++++++++++++++++++++++++++++++++ss
(PID.TID 0000.0001) //     40 ++++sssssssss++s+sss++++++++++++++++ssss++++++++++++++++++++++++++++++++++++++++++++++++++++++ss++++++++++++++++++++++++++++++++++++ss
(PID.TID 0000.0001) //     39 ++++ssss++sss++s++ssss+++++++ss+++++++ss++++++++++++++++++++++++++++++++++++++++++++++++++++++sss+++++++++++++++++++++++++++++++++++ss
(PID.TID 0000.0001) //     38 ++++++s+++sssssss+sss+++++++++s+++++++++++++++++++++++++++++++++++++++++++++++++++++++++++++++++++ss++++++++++++++++++++++++++++++++++
(PID.TID 0000.0001) //     37 +++++s++++ssssssss++++++++++++s+++++++++++++++++++++++++++++++++++++++++++++++++++++++++++++++++++++s++++++++++++++++++++++++++++++++s
(PID.TID 0000.0001) //     36 s++++sss++sss++s-ssss+++++++++++++++++++++++++++++++++++++++++++++++++++++++++++++++++++++++++++++++++++++s++++++++++++++++++++ss++++s
(PID.TID 0000.0001) //     35 ++++++ssssssss+sssss++++++++++++++++++++++++++++++++++++++++++++++++++++++++++++++++++++++++++++++++++++ss+s++++++++++++++++++++++++++
(PID.TID 0000.0001) //     34 +++++++sssssssssss+++++++++++++++++++s++++++s+++++++++++++++++++++++++++++++++++++++++++++++++++++++++++s++sss++++++++++++++++++++++++
(PID.TID 0000.0001) //     33 +++++++ss+++sssss++++++++++++++++++++++++++ss++++++++++++++++++++++++++++++++++++++++++++++++++++++++++ss+++++++++++++++++++++++++++++
(PID.TID 0000.0001) //     32 +++++++ss++sss+ss+++++++++++++++++++++++++++++++++++++++++++++++++++++++++++++++++++++++++++++++++++++ss++++++++++++++++++++++++++++++
(PID.TID 0000.0001) //     31 ++++++++sssssssss++++++++++++++++++++++++++++++++++sss++++++++++++++++++++++++++++++++++++++++++++++++ss++++++++++++++++++++++++++++++
(PID.TID 0000.0001) //     30 ++++++++sssssssss+++++++++++++++++++++++++++++++++++++s++++++++++++++++++++++++++++++++++++++++++++++++s++++++++++++s+++++++++++++++++
(PID.TID 0000.0001) //     29 ++++++++sssssssss++++++++++++++++++++++++++++++++++++++++++++++++++++++++++++++++++++++++++++++++++++++-s+++++++++sss+++++++++++++++++
(PID.TID 0000.0001) //     28 ++++++++sssssssss++++++++++++++++++++++++++++++++++++++++++++++++++++++++++++++++++++++++++++++++++++++s-s++++++++sss+++++++++++++++++
(PID.TID 0000.0001) //     27 +++++++ssssssssss+++s+++++++++++++++++++++++++++++++++++++++++++++++++++++++++++++++++++++++++++++++++++s--s+++s+ssss+++++++++++++++++
(PID.TID 0000.0001) //     26 +++++++ssssssss++++s++++++++++++++++++++++++++++++++++s+++++++++++++++++++++++++++++++++++++++++++++++++++--s+++ssss++++++++++++++++++
(PID.TID 0000.0001) //     25 ++++++++sssssss++++s+++++++++++++++++++++++++++++ss+++++++++++++++++++++++++++++++++++++++++++++++++++++++--s++++sss++++++++++++++++++
(PID.TID 0000.0001) //     24 ++++++++ssssss+++++s++++++++++++++++++++++++sss+sss+++++++++++++++++++++++++++++++++++++++++++++++++++++++--++++ss++++++++++++++++++++
(PID.TID 0000.0001) //     23 ++++++++ssssss+++++++++++++++++++++++++++++++sssss++++++++++++++++++++++++++++++++++++++++++++++++++++++++--++++ss++++++++++++++++++++
(PID.TID 0000.0001) //     22 +++++++++sssss+++++++++++++++++++++++++++++++ss+++++++++s+++++++++++++++++++++++++++++++++++++++++++++++++-s++++++++++++++++++++++++++
(PID.TID 0000.0001) //     21 ++++++++++sss+++++++++++++++++++++++++++++++++++++++++++s++++++++++++++++++++++++++++++++++++++++++++++++sss++++++++++++++++++++++++++
(PID.TID 0000.0001) //     20 +++++++++++++++++++++++++++++++++++++++++++++++++++++++s+++++++++++++++++++++++++++++++++++++++++++++++++ss+++++++++++++++++++++++++++
(PID.TID 0000.0001) //     19 +++++++++++++++++++++++++++++++++++++++++++++++++++++++++++++++++++++++++++++++++++++++++++++++++++++++++ss+++++++++++++++++++++++++++
(PID.TID 0000.0001) //     18 +++++++++++++++++++++++++++++++++++++++++++++++++++++++++++++++++++++++++++++++++++++++++++++++++++++++++ss+++++++++++++++++++++++++++
(PID.TID 0000.0001) //     17 +++++++++++++++++++++++++++++++++++++++++++++++++++++++++++++++++++++++++++++++++++++++++++++++++++++++++ss+++++++++++++++++++++++++++
(PID.TID 0000.0001) //     16 +++++++++++++++++++++++++++++++++++++++++++++++++++++++++++++++++++++++++++++++++++++++++++++++++++++++++ss+++++++++++++++++++++++++++
(PID.TID 0000.0001) //     15 ++++++++++++++++++++++++++++++++++++++++++++++++++++++++++++++++++++++++++++++++++++++++++++++++++++++++ss++++++++++++++++++++++++++++
(PID.TID 0000.0001) //     14 ++++++++++++++++++++++++++++++++++++++++++++++++++++++++++++++++++++++++++++++++++++++++++++++++++++++++++++++++++++++++++++++++++++++
(PID.TID 0000.0001) //     13 ++++++++++++++++++++++++++++++++++++++++++++++++++++++++++++++++++++++++++++++++++++++++++++++++++++++++++++++++++++++++++++++++++++++
(PID.TID 0000.0001) //     12 ++++++++++++++++++++++++++++++++++++++++++++++++++++++++++++++++++++++++++++++++++++++++++++++++++++++++++++++++++++++++++++++++++++++
(PID.TID 0000.0001) //     11 ++++++++++++++++++++++++++++++++++++++++++++++++++++++++++++++++++++++++++++++++++++++++++++++++++++++++++++++++++++++++++++++++++++++
(PID.TID 0000.0001) //     10 ++++++++++++++++++++++++++++++++++++++++++++++++++++++++++++++++++++++++++++++++++++++++++++++++++++++++++++++++++++++++++++++++++++++
(PID.TID 0000.0001) //      9 +++++++++++++++++++++++++++++++++++++++s++++++++++++++++++++++++++++++++++++++++++++++++++++++++++++++++++++++++++++++++++++++++++++++
(PID.TID 0000.0001) //      8 ++++++++++++++++++ssss-ssss++++ssss-------ssssssss---sssss+++++++++++++++++++++++++++++++++++++++++++++++++s++++++++++++++++++++++++++
(PID.TID 0000.0001) //      7 sssssssssssssssss--------sssss--------------------------sssssss+++++++++++++++++++++++++++++++++++++++++++sss+++++++++++++++++++ssssss
(PID.TID 0000.0001) //      6 ------------------------ssss------------------------------ssss++++++++++++++++++++++++++++++++++sssssssssssss++++++++++++++ssss-------
(PID.TID 0000.0001) //      5 -----------------------------------------------------------ss++++++++++++++++++sssssssssssssssssssssss++++++++++++++++++ssss----------
(PID.TID 0000.0001) //      4 --------------------------------------------------------ssss++++++++++++++++++++sssssssssssssss---sssss+++++++++++++++++ssss----------
(PID.TID 0000.0001) //      3 ----------------------------------------------------------ssssss++++++++++++++++ssssssssssssss----sssssssss+++sssssssssssss-----------
(PID.TID 0000.0001) //      2 ---------------------------------------------------------------------sssssssssssssssssssssssssssssssssssssssssssssssss----------------
(PID.TID 0000.0001) //      1 --------------------------------------------------------------------------------------------------------------------------------------
(PID.TID 0000.0001) //      0 ......................................................................................................................................
(PID.TID 0000.0001) //     -1 ......................................................................................................................................
(PID.TID 0000.0001) //     -2 ......................................................................................................................................
(PID.TID 0000.0001) // =======================================================
(PID.TID 0000.0001) // END OF FIELD                                          =
(PID.TID 0000.0001) // =======================================================
(PID.TID 0000.0001) 
(PID.TID 0000.0001) // =======================================================
(PID.TID 0000.0001) // Field hFacC at iteration          1
(PID.TID 0000.0001) // CMIN =          1.000000000000000E+00
(PID.TID 0000.0001) // CMAX =          1.000000000000000E+00
(PID.TID 0000.0001) // CINT =          0.000000000000000E+00
(PID.TID 0000.0001) // SYMBOLS (CMIN->CMAX): -abcdefghijklmnopqrstuvwxyz+
(PID.TID 0000.0001) //                  0.0: .
(PID.TID 0000.0001) // RANGE I (Lo:Hi:Step):(  -2: 131:   1)
(PID.TID 0000.0001) // RANGE J (Lo:Hi:Step):(  67:  -2:  -1)
(PID.TID 0000.0001) // RANGE K (Lo:Hi:Step):(   1:   1:   1)
(PID.TID 0000.0001) // =======================================================
(PID.TID 0000.0001) K =   1
(PID.TID 0000.0001) //                I=7       I=17      I=27      I=37      I=47      I=57      I=67      I=77      I=87      I=97      I=107     I=117     I=127
(PID.TID 0000.0001) // |--J--|**0123456|890123456|890123456|890123456|890123456|890123456|890123456|890123456|890123456|890123456|890123456|890123456|890123456|8901
(PID.TID 0000.0001) //     67 ......................................................................................................................................
(PID.TID 0000.0001) //     66 ......................................................................................................................................
(PID.TID 0000.0001) //     65 ......................................................................................................................................
(PID.TID 0000.0001) //     64 --------------------------------------------------------------------------------------------------------------------------------------
(PID.TID 0000.0001) //     63 --------------------------------------------------------------------------------------------------------------------------------------
(PID.TID 0000.0001) //     62 -------------------------------------------------------------------------------------------------------..-------------.---------------
(PID.TID 0000.0001) //     61 ---------------------------------------------------------------------------------------------------.......--................----------
(PID.TID 0000.0001) //     60 -----------------------------------------------------------------------------------------------------..---.................-----------
(PID.TID 0000.0001) //     59 ---------------------------------------------------------------------------------------------------------------.............----------
(PID.TID 0000.0001) //     58 ----------------------------------------------------------------------------------------------------------------..........------------
(PID.TID 0000.0001) //     57 ---------..------------------------....---------..-..------------.--------........-------------------------------........-------------
(PID.TID 0000.0001) //     56 --------..--------------------------.......-----........---.....------------..--.....----------------------------.....----------------
(PID.TID 0000.0001) //     55 ------...---------------------------....----------............--.-----------...........--------------------------...------------------
(PID.TID 0000.0001) //     54 -----..-----------------------------.--......--.---.......------------------.--.........-----.---------------------------------------.
(PID.TID 0000.0001) //     53 ----------------------------------------.............------------------------------........-..----------------------------------------
(PID.TID 0000.0001) //     52 ----------------------------------.................--------.-------------------------.........-----------....-------------------------
(PID.TID 0000.0001) //     51 ---------------------------------...............-...----------------------------------.........----------....-------------------------
(PID.TID 0000.0001) //     50 -------....----------------....................-----.----------------------------------.........--------------------------------------
(PID.TID 0000.0001) //     49 ----.....--..---------------...................----.-----------------------------------.........------------------------------------..
(PID.TID 0000.0001) //     48 ---.-----...-----...-------...................--..-------------------------------------..........----------------------------------.--
(PID.TID 0000.0001) //     47 ....------.---......-------...................-..--------------------------------------..........-------------------------------....--
(PID.TID 0000.0001) //     46 -.-----------.......---.--..................--------------------------------------------........------.--------------------------.----
(PID.TID 0000.0001) //     45 ---...----------.--........................---------------------------------------------........-----.-----------------------------...
(PID.TID 0000.0001) //     44 .....-----------..--........-..............------------------------------------------------.....--------------------------------.....-
(PID.TID 0000.0001) //     43 ....--..-------....--.......---.........-..------------------------------------------------....---------------------------------....--
(PID.TID 0000.0001) //     42 ----.....-------....---....------..........-.-----------------------------------------------...--------------------------------.----..
(PID.TID 0000.0001) //     41 ----.........----...---------..-..--.....----------------------------------------------------...------------------------------------..
(PID.TID 0000.0001) //     40 ----.........--.-...----------------....------------------------------------------------------..------------------------------------..
(PID.TID 0000.0001) //     39 ----....--...--.--....-------..-------..------------------------------------------------------...-----------------------------------..
(PID.TID 0000.0001) //     38 ------.---.......-...---------.-------------------------------------------------------------------..----------------------------------
(PID.TID 0000.0001) //     37 -----.----........------------.---------------------------------------------------------------------.--------------------------------.
(PID.TID 0000.0001) //     36 .----...--...--......-------------------------------------------------------------------------------------.--------------------..----.
(PID.TID 0000.0001) //     35 ------........-.....------------------------------------------------------------------------------------..-.--------------------------
(PID.TID 0000.0001) //     34 -------...........-------------------.------.-----------------------------------------------------------.--...------------------------
(PID.TID 0000.0001) //     33 -------..---.....--------------------------..----------------------------------------------------------..-----------------------------
(PID.TID 0000.0001) //     32 -------..--...-..-------------------------------------------------------------------------------------..------------------------------
(PID.TID 0000.0001) //     31 --------.........----------------------------------...------------------------------------------------..------------------------------
(PID.TID 0000.0001) //     30 --------.........-------------------------------------.------------------------------------------------.------------.-----------------
(PID.TID 0000.0001) //     29 --------.........--------------------------------------------------------------------------------------..---------...-----------------
(PID.TID 0000.0001) //     28 --------.........--------------------------------------------------------------------------------------...--------...-----------------
(PID.TID 0000.0001) //     27 -------..........---.-----------------------------------------------------------------------------------....---.-....-----------------
(PID.TID 0000.0001) //     26 -------........----.----------------------------------.---------------------------------------------------...---....------------------
(PID.TID 0000.0001) //     25 --------.......----.-----------------------------..-------------------------------------------------------...----...------------------
(PID.TID 0000.0001) //     24 --------......-----.------------------------...-...-------------------------------------------------------..----..--------------------
(PID.TID 0000.0001) //     23 --------......-------------------------------.....--------------------------------------------------------..----..--------------------
(PID.TID 0000.0001) //     22 ---------.....-------------------------------..---------.-------------------------------------------------..--------------------------
(PID.TID 0000.0001) //     21 ----------...-------------------------------------------.------------------------------------------------...--------------------------
(PID.TID 0000.0001) //     20 -------------------------------------------------------.-------------------------------------------------..---------------------------
(PID.TID 0000.0001) //     19 ---------------------------------------------------------------------------------------------------------..---------------------------
(PID.TID 0000.0001) //     18 ---------------------------------------------------------------------------------------------------------..---------------------------
(PID.TID 0000.0001) //     17 ---------------------------------------------------------------------------------------------------------..---------------------------
(PID.TID 0000.0001) //     16 ---------------------------------------------------------------------------------------------------------..---------------------------
(PID.TID 0000.0001) //     15 --------------------------------------------------------------------------------------------------------..----------------------------
(PID.TID 0000.0001) //     14 --------------------------------------------------------------------------------------------------------------------------------------
(PID.TID 0000.0001) //     13 --------------------------------------------------------------------------------------------------------------------------------------
(PID.TID 0000.0001) //     12 --------------------------------------------------------------------------------------------------------------------------------------
(PID.TID 0000.0001) //     11 --------------------------------------------------------------------------------------------------------------------------------------
(PID.TID 0000.0001) //     10 --------------------------------------------------------------------------------------------------------------------------------------
(PID.TID 0000.0001) //      9 ---------------------------------------.----------------------------------------------------------------------------------------------
(PID.TID 0000.0001) //      8 ------------------.........----...........................-------------------------------------------------.--------------------------
(PID.TID 0000.0001) //      7 ...............................................................-------------------------------------------...-------------------......
(PID.TID 0000.0001) //      6 ..............................................................----------------------------------.............--------------...........
(PID.TID 0000.0001) //      5 .............................................................------------------.......................------------------..............
(PID.TID 0000.0001) //      4 ............................................................--------------------.......................-----------------..............
(PID.TID 0000.0001) //      3 ................................................................----------------...........................---........................
(PID.TID 0000.0001) //      2 ......................................................................................................................................
(PID.TID 0000.0001) //      1 ......................................................................................................................................
(PID.TID 0000.0001) //      0 ......................................................................................................................................
(PID.TID 0000.0001) //     -1 ......................................................................................................................................
(PID.TID 0000.0001) //     -2 ......................................................................................................................................
(PID.TID 0000.0001) // =======================================================
(PID.TID 0000.0001) // END OF FIELD                                          =
(PID.TID 0000.0001) // =======================================================
(PID.TID 0000.0001) 
(PID.TID 0000.0001) // =======================================================
(PID.TID 0000.0001) // Field hFacW at iteration          1
(PID.TID 0000.0001) // CMIN =          1.000000000000000E+00
(PID.TID 0000.0001) // CMAX =          1.000000000000000E+00
(PID.TID 0000.0001) // CINT =          0.000000000000000E+00
(PID.TID 0000.0001) // SYMBOLS (CMIN->CMAX): -abcdefghijklmnopqrstuvwxyz+
(PID.TID 0000.0001) //                  0.0: .
(PID.TID 0000.0001) // RANGE I (Lo:Hi:Step):(  -2: 131:   1)
(PID.TID 0000.0001) // RANGE J (Lo:Hi:Step):(  67:  -2:  -1)
(PID.TID 0000.0001) // RANGE K (Lo:Hi:Step):(   1:   1:   1)
(PID.TID 0000.0001) // =======================================================
(PID.TID 0000.0001) K =   1
(PID.TID 0000.0001) //                I=7       I=17      I=27      I=37      I=47      I=57      I=67      I=77      I=87      I=97      I=107     I=117     I=127
(PID.TID 0000.0001) // |--J--|**0123456|890123456|890123456|890123456|890123456|890123456|890123456|890123456|890123456|890123456|890123456|890123456|890123456|8901
(PID.TID 0000.0001) //     67 .................................................................---------------............................--........................
(PID.TID 0000.0001) //     66 ......................................................................................................................................
(PID.TID 0000.0001) //     65 ......................................................................................................................................
(PID.TID 0000.0001) //     64 --------------------------------------------------------------------------------------------------------------------------------------
(PID.TID 0000.0001) //     63 --------------------------------------------------------------------------------------------------------------------------------------
(PID.TID 0000.0001) //     62 -------------------------------------------------------------------------------------------------------...------------..--------------
(PID.TID 0000.0001) //     61 ---------------------------------------------------------------------------------------------------........-.................---------
(PID.TID 0000.0001) //     60 -----------------------------------------------------------------------------------------------------...--..................----------
(PID.TID 0000.0001) //     59 ---------------------------------------------------------------------------------------------------------------..............---------
(PID.TID 0000.0001) //     58 ----------------------------------------------------------------------------------------------------------------...........-----------
(PID.TID 0000.0001) //     57 ---------...-----------------------.....--------......-----------..-------.........------------------------------.........------------
(PID.TID 0000.0001) //     56 --------...-------------------------........----.........--......-----------...-......---------------------------......---------------
(PID.TID 0000.0001) //     55 ------....--------------------------.....---------.............-..----------............-------------------------....-----------------
(PID.TID 0000.0001) //     54 -----...----------------------------..-.......-..--........-----------------..-..........----..--------------------------------------.
(PID.TID 0000.0001) //     53 ----------------------------------------..............-----------------------------............---------------------------------------
(PID.TID 0000.0001) //     52 ----------------------------------..................-------..------------------------..........----------.....------------------------
(PID.TID 0000.0001) //     51 ---------------------------------....................---------------------------------..........---------.....------------------------
(PID.TID 0000.0001) //     50 -------.....---------------.....................----..---------------------------------..........-------------------------------------
(PID.TID 0000.0001) //     49 ----......-...--------------....................---..----------------------------------..........-----------------------------------..
(PID.TID 0000.0001) //     48 ---..----....----....------....................-...------------------------------------...........---------------------------------..-
(PID.TID 0000.0001) //     47 .....-----..--.......------.......................-------------------------------------...........------------------------------.....-
(PID.TID 0000.0001) //     46 -..----------........--..-...................-------------------------------------------.........-----..-------------------------..---
(PID.TID 0000.0001) //     45 ---....---------..-.........................--------------------------------------------.........----..----------------------------...
(PID.TID 0000.0001) //     44 ......----------...-........................-----------------------------------------------......-------------------------------......
(PID.TID 0000.0001) //     43 .....-...------.....-........--.............-----------------------------------------------.....--------------------------------.....-
(PID.TID 0000.0001) //     42 .---......------.....--.....-----.............----------------------------------------------....-------------------------------..---..
(PID.TID 0000.0001) //     41 ----..........---....--------......-......---------------------------------------------------....-----------------------------------..
(PID.TID 0000.0001) //     40 ----..........-......---------------.....-----------------------------------------------------...-----------------------------------..
(PID.TID 0000.0001) //     39 ----.....-....-..-.....------...------...-----------------------------------------------------....----------------------------------..
(PID.TID 0000.0001) //     38 ------..--............--------..------------------------------------------------------------------...---------------------------------
(PID.TID 0000.0001) //     37 -----..---.........-----------..--------------------------------------------------------------------..-------------------------------.
(PID.TID 0000.0001) //     36 ..---....-....-.......------------------------------------------------------------------------------------..-------------------...---.
(PID.TID 0000.0001) //     35 ------...............-----------------------------------------------------------------------------------.....-------------------------
(PID.TID 0000.0001) //     34 -------............------------------..-----..----------------------------------------------------------..-....-----------------------
(PID.TID 0000.0001) //     33 -------...--......-------------------------...---------------------------------------------------------...----------------------------
(PID.TID 0000.0001) //     32 -------...-.......------------------------------------------------------------------------------------...-----------------------------
(PID.TID 0000.0001) //     31 --------..........---------------------------------....-----------------------------------------------...-----------------------------
(PID.TID 0000.0001) //     30 --------..........------------------------------------..-----------------------------------------------..-----------..----------------
(PID.TID 0000.0001) //     29 --------..........-------------------------------------------------------------------------------------...--------....----------------
(PID.TID 0000.0001) //     28 --------..........-------------------------------------------------------------------------------------....-------....----------------
(PID.TID 0000.0001) //     27 -------...........--..----------------------------------------------------------------------------------.....--.......----------------
(PID.TID 0000.0001) //     26 -------.........---..---------------------------------..--------------------------------------------------....--.....-----------------
(PID.TID 0000.0001) //     25 --------........---..----------------------------...------------------------------------------------------....---....-----------------
(PID.TID 0000.0001) //     24 --------.......----..-----------------------........------------------------------------------------------...---...-------------------
(PID.TID 0000.0001) //     23 --------.......------------------------------......-------------------------------------------------------...---...-------------------
(PID.TID 0000.0001) //     22 ---------......------------------------------...--------..------------------------------------------------...-------------------------
(PID.TID 0000.0001) //     21 ----------....------------------------------------------..-----------------------------------------------....-------------------------
(PID.TID 0000.0001) //     20 -------------------------------------------------------..------------------------------------------------...--------------------------
(PID.TID 0000.0001) //     19 ---------------------------------------------------------------------------------------------------------...--------------------------
(PID.TID 0000.0001) //     18 ---------------------------------------------------------------------------------------------------------...--------------------------
(PID.TID 0000.0001) //     17 ---------------------------------------------------------------------------------------------------------...--------------------------
(PID.TID 0000.0001) //     16 ---------------------------------------------------------------------------------------------------------...--------------------------
(PID.TID 0000.0001) //     15 --------------------------------------------------------------------------------------------------------...---------------------------
(PID.TID 0000.0001) //     14 --------------------------------------------------------------------------------------------------------------------------------------
(PID.TID 0000.0001) //     13 --------------------------------------------------------------------------------------------------------------------------------------
(PID.TID 0000.0001) //     12 --------------------------------------------------------------------------------------------------------------------------------------
(PID.TID 0000.0001) //     11 --------------------------------------------------------------------------------------------------------------------------------------
(PID.TID 0000.0001) //     10 --------------------------------------------------------------------------------------------------------------------------------------
(PID.TID 0000.0001) //      9 ---------------------------------------..---------------------------------------------------------------------------------------------
(PID.TID 0000.0001) //      8 ------------------..........---............................------------------------------------------------..-------------------------
(PID.TID 0000.0001) //      7 ................................................................------------------------------------------....------------------......
(PID.TID 0000.0001) //      6 ...............................................................---------------------------------..............-------------...........
(PID.TID 0000.0001) //      5 ..............................................................-----------------........................-----------------..............
(PID.TID 0000.0001) //      4 .............................................................-------------------........................----------------..............
(PID.TID 0000.0001) //      3 .................................................................---------------............................--........................
(PID.TID 0000.0001) //      2 ......................................................................................................................................
(PID.TID 0000.0001) //      1 ......................................................................................................................................
(PID.TID 0000.0001) //      0 --------------------------------------------------------------------------------------------------------------------------------------
(PID.TID 0000.0001) //     -1 --------------------------------------------------------------------------------------------------------------------------------------
(PID.TID 0000.0001) //     -2 -------------------------------------------------------------------------------------------------------...------------..--------------
(PID.TID 0000.0001) // =======================================================
(PID.TID 0000.0001) // END OF FIELD                                          =
(PID.TID 0000.0001) // =======================================================
(PID.TID 0000.0001) 
(PID.TID 0000.0001) // =======================================================
(PID.TID 0000.0001) // Field hFacS at iteration          1
(PID.TID 0000.0001) // CMIN =          1.000000000000000E+00
(PID.TID 0000.0001) // CMAX =          1.000000000000000E+00
(PID.TID 0000.0001) // CINT =          0.000000000000000E+00
(PID.TID 0000.0001) // SYMBOLS (CMIN->CMAX): -abcdefghijklmnopqrstuvwxyz+
(PID.TID 0000.0001) //                  0.0: .
(PID.TID 0000.0001) // RANGE I (Lo:Hi:Step):(  -2: 131:   1)
(PID.TID 0000.0001) // RANGE J (Lo:Hi:Step):(  67:  -2:  -1)
(PID.TID 0000.0001) // RANGE K (Lo:Hi:Step):(   1:   1:   1)
(PID.TID 0000.0001) // =======================================================
(PID.TID 0000.0001) K =   1
(PID.TID 0000.0001) //                I=7       I=17      I=27      I=37      I=47      I=57      I=67      I=77      I=87      I=97      I=107     I=117     I=127
(PID.TID 0000.0001) // |--J--|**0123456|890123456|890123456|890123456|890123456|890123456|890123456|890123456|890123456|890123456|890123456|890123456|890123456|8901
(PID.TID 0000.0001) //     67 ......................................................................................................................................
(PID.TID 0000.0001) //     66 ......................................................................................................................................
(PID.TID 0000.0001) //     65 ......................................................................................................................................
(PID.TID 0000.0001) //     64 --------------------------------------------------------------------------------------------------------------------------------------
(PID.TID 0000.0001) //     63 -------------------------------------------------------------------------------------------------------..-------------.---------------
(PID.TID 0000.0001) //     62 ---------------------------------------------------------------------------------------------------.......--................----------
(PID.TID 0000.0001) //     61 ---------------------------------------------------------------------------------------------------.........................----------
(PID.TID 0000.0001) //     60 -----------------------------------------------------------------------------------------------------..---..................----------
(PID.TID 0000.0001) //     59 ---------------------------------------------------------------------------------------------------------------.............----------
(PID.TID 0000.0001) //     58 ---------..------------------------....---------..-..------------.--------........------------------------------..........------------
(PID.TID 0000.0001) //     57 --------...------------------------........-----........---.....-.--------...........----------------------------........-------------
(PID.TID 0000.0001) //     56 ------....--------------------------.......-----.................-----------...........--------------------------.....----------------
(PID.TID 0000.0001) //     55 -----....---------------------------.........--.--............--.-----------............-----.-------------------...-----------------.
(PID.TID 0000.0001) //     54 -----..-----------------------------.--...................------------------.--............-..---------------------------------------.
(PID.TID 0000.0001) //     53 ----------------------------------...................------.-----------------------...........-----------....-------------------------
(PID.TID 0000.0001) //     52 ---------------------------------...................-------.-------------------------..........----------....-------------------------
(PID.TID 0000.0001) //     51 -------....----------------.....................-....---------------------------------..........---------....-------------------------
(PID.TID 0000.0001) //     50 ----.........--------------....................----..----------------------------------.........------------------------------------..
(PID.TID 0000.0001) //     49 ---..........----...-------....................-..-.-----------------------------------..........----------------------------------...
(PID.TID 0000.0001) //     48 ....-----...--......-------...................-...-------------------------------------..........-------------------------------....--
(PID.TID 0000.0001) //     47 ....------.--.......---.--....................-..--------------------------------------..........-----.-------------------------....--
(PID.TID 0000.0001) //     46 -.-...-------...............................--------------------------------------------........-----..--------------------------.-...
(PID.TID 0000.0001) //     45 ......----------..-........................---------------------------------------------........-----.--------------------------......
(PID.TID 0000.0001) //     44 .....-..-------....-........-..............------------------------------------------------.....--------------------------------.....-
(PID.TID 0000.0001) //     43 .........------.....-.......---............-.----------------------------------------------....--------------------------------.......
(PID.TID 0000.0001) //     42 ----.........---....---....--..-...........-.-----------------------------------------------....-------------------------------.----..
(PID.TID 0000.0001) //     41 ----.........--.-...---------..-..--.....----------------------------------------------------...------------------------------------..
(PID.TID 0000.0001) //     40 ----.........--.-.....-------..-----....------------------------------------------------------...-----------------------------------..
(PID.TID 0000.0001) //     39 ----....--.......-....-------..-------..------------------------------------------------------...-..--------------------------------..
(PID.TID 0000.0001) //     38 -----..---...........---------.-------------------------------------------------------------------...--------------------------------.
(PID.TID 0000.0001) //     37 .----...--...........---------.---------------------------------------------------------------------.-----.--------------------..----.
(PID.TID 0000.0001) //     36 .----.........-......-----------------------------------------------------------------------------------....-------------------..----.
(PID.TID 0000.0001) //     35 ------..............-----------------.------.-----------------------------------------------------------..-...------------------------
(PID.TID 0000.0001) //     34 -------...........-------------------.-----..----------------------------------------------------------..--...------------------------
(PID.TID 0000.0001) //     33 -------..--......--------------------------..---------------------------------------------------------...-----------------------------
(PID.TID 0000.0001) //     32 -------..........----------------------------------...------------------------------------------------..------------------------------
(PID.TID 0000.0001) //     31 --------.........----------------------------------....-----------------------------------------------..------------.-----------------
(PID.TID 0000.0001) //     30 --------.........-------------------------------------.------------------------------------------------..---------...-----------------
(PID.TID 0000.0001) //     29 --------.........--------------------------------------------------------------------------------------...--------...-----------------
(PID.TID 0000.0001) //     28 -------..........---.----------------------------------------------------------------------------------.....---.-....-----------------
(PID.TID 0000.0001) //     27 -------..........--..---------------------------------.-------------------------------------------------.....--......-----------------
(PID.TID 0000.0001) //     26 -------........----.-----------------------------..---.---------------------------------------------------...---....------------------
(PID.TID 0000.0001) //     25 --------.......----.------------------------...-...-------------------------------------------------------...---....------------------
(PID.TID 0000.0001) //     24 --------......-----.------------------------.......-------------------------------------------------------..----..--------------------
(PID.TID 0000.0001) //     23 --------......-------------------------------.....------.-------------------------------------------------..----..--------------------
(PID.TID 0000.0001) //     22 ---------.....-------------------------------..---------.------------------------------------------------...--------------------------
(PID.TID 0000.0001) //     21 ----------...------------------------------------------..------------------------------------------------...--------------------------
(PID.TID 0000.0001) //     20 -------------------------------------------------------.-------------------------------------------------..---------------------------
(PID.TID 0000.0001) //     19 ---------------------------------------------------------------------------------------------------------..---------------------------
(PID.TID 0000.0001) //     18 ---------------------------------------------------------------------------------------------------------..---------------------------
(PID.TID 0000.0001) //     17 ---------------------------------------------------------------------------------------------------------..---------------------------
(PID.TID 0000.0001) //     16 --------------------------------------------------------------------------------------------------------...---------------------------
(PID.TID 0000.0001) //     15 --------------------------------------------------------------------------------------------------------..----------------------------
(PID.TID 0000.0001) //     14 --------------------------------------------------------------------------------------------------------------------------------------
(PID.TID 0000.0001) //     13 --------------------------------------------------------------------------------------------------------------------------------------
(PID.TID 0000.0001) //     12 --------------------------------------------------------------------------------------------------------------------------------------
(PID.TID 0000.0001) //     11 --------------------------------------------------------------------------------------------------------------------------------------
(PID.TID 0000.0001) //     10 ---------------------------------------.----------------------------------------------------------------------------------------------
(PID.TID 0000.0001) //      9 ------------------.........----...........................-------------------------------------------------.--------------------------
(PID.TID 0000.0001) //      8 ...............................................................-------------------------------------------...-------------------......
(PID.TID 0000.0001) //      7 ...............................................................---------------------------------.............--------------...........
(PID.TID 0000.0001) //      6 ..............................................................-----------------..............................-----------..............
(PID.TID 0000.0001) //      5 .............................................................------------------........................-----------------..............
(PID.TID 0000.0001) //      4 ................................................................----------------...........................---........................
(PID.TID 0000.0001) //      3 ......................................................................................................................................
(PID.TID 0000.0001) //      2 ......................................................................................................................................
(PID.TID 0000.0001) //      1 ......................................................................................................................................
(PID.TID 0000.0001) //      0 ......................................................................................................................................
(PID.TID 0000.0001) //     -1 ......................................................................................................................................
(PID.TID 0000.0001) //     -2 ......................................................................................................................................
(PID.TID 0000.0001) // =======================================================
(PID.TID 0000.0001) // END OF FIELD                                          =
(PID.TID 0000.0001) // =======================================================
(PID.TID 0000.0001) 
(PID.TID 0000.0001) %MON fCori_max                    =   1.4540029928789E-04
(PID.TID 0000.0001) %MON fCori_min                    =  -1.4540029928789E-04
(PID.TID 0000.0001) %MON fCori_mean                   =  -2.2565487110447E-21
(PID.TID 0000.0001) %MON fCori_sd                     =   1.0284451245737E-04
(PID.TID 0000.0001) %MON fCoriG_max                   =   1.4526891053949E-04
(PID.TID 0000.0001) %MON fCoriG_min                   =  -1.4544410433286E-04
(PID.TID 0000.0001) %MON fCoriG_mean                  =  -2.3086365767121E-06
(PID.TID 0000.0001) %MON fCoriG_sd                    =   1.0363181330709E-04
(PID.TID 0000.0001)  PACKAGES_BOOT: opening data.pkg
(PID.TID 0000.0001)  OPEN_COPY_DATA_FILE: opening file data.pkg
(PID.TID 0000.0001) // =======================================================
(PID.TID 0000.0001) // Parameter file "data.pkg"
(PID.TID 0000.0001) // =======================================================
(PID.TID 0000.0001) ># Packages
(PID.TID 0000.0001) > &PACKAGES
(PID.TID 0000.0001) > useAIM=.TRUE.,
(PID.TID 0000.0001) > useSHAP_FILT=.TRUE.,
(PID.TID 0000.0001) > &
(PID.TID 0000.0001) 
(PID.TID 0000.0001)  PACKAGES_BOOT: finished reading data.pkg
(PID.TID 0000.0001)  SHAP_FILT_READPARMS: opening data.shap
(PID.TID 0000.0001)  OPEN_COPY_DATA_FILE: opening file data.shap
(PID.TID 0000.0001) // =======================================================
(PID.TID 0000.0001) // Parameter file "data.shap"
(PID.TID 0000.0001) // =======================================================
(PID.TID 0000.0001) ># Packages
(PID.TID 0000.0001) > &SHAP_PARM01
(PID.TID 0000.0001) > nShapT=4,
(PID.TID 0000.0001) > nShapUV=4,
(PID.TID 0000.0001) > Shap_funct=4,
(PID.TID 0000.0001) > &
(PID.TID 0000.0001) 
(PID.TID 0000.0001)  SHAP_FILT_READPARMS: finished reading data.shap
 Shap_funct, nShap_Tr,UV _Phys=           4           4           4           0
            0
 Shap_Trtau,Shap_uvtau=   450.0000000000000        450.0000000000000     
(PID.TID 0000.0001) // CG2D normalisation factor =          0.2454122852291226400000000E-06
(PID.TID 0000.0001) 
 ini_cg2d: sumArea,cg2dTolerance =  5.09904363781794E+14  2.78081767031093E-12
(PID.TID 0000.0001) // =======================================================
(PID.TID 0000.0001) // Model configuration
(PID.TID 0000.0001) // =======================================================
(PID.TID 0000.0001) //
(PID.TID 0000.0001) // "Physical" paramters ( PARM01 in namelist )
(PID.TID 0000.0001) //
(PID.TID 0000.0001) tRef =   /* Reference temperature profile ( oC or oK ) */
(PID.TID 0000.0001)                 2.810890000000000E+02,      /* K =  1 */
(PID.TID 0000.0001)                 2.893210000000000E+02,      /* K =  2 */
(PID.TID 0000.0001)                 3.071910000000000E+02,      /* K =  3 */
(PID.TID 0000.0001)                 3.313770000000000E+02,      /* K =  4 */
(PID.TID 0000.0001)                 4.324130000000000E+02       /* K =  5 */
(PID.TID 0000.0001)     ;
(PID.TID 0000.0001) sRef =   /* Reference salinity profile ( ppt ) */
(PID.TID 0000.0001)     5 @  0.000000000000000E+00              /* K =  1:  5 */
[...]
(PID.TID 0000.0001) %MON dynstat_uvel_mean            =   6.9690366682941E+00
(PID.TID 0000.0001) %MON dynstat_uvel_sd              =   1.2571692912102E+01
(PID.TID 0000.0001) %MON dynstat_vvel_max             =   3.0805656564070E+01
(PID.TID 0000.0001) %MON dynstat_vvel_min             =  -3.4073830227134E+01
(PID.TID 0000.0001) %MON dynstat_vvel_mean            =  -4.9876279217435E-02
(PID.TID 0000.0001) %MON dynstat_vvel_sd              =   6.0473004724546E+00
(PID.TID 0000.0001) %MON dynstat_wvel_max             =   1.5170747980636E+00
(PID.TID 0000.0001) %MON dynstat_wvel_min             =  -1.4045903617500E+00
(PID.TID 0000.0001) %MON dynstat_wvel_mean            =   3.8895966995742E-04
(PID.TID 0000.0001) %MON dynstat_wvel_sd              =   6.1963051137783E-02
(PID.TID 0000.0001) %MON dynstat_theta_max            =   4.7617705701708E+02
(PID.TID 0000.0001) %MON dynstat_theta_min            =   2.3930187664124E+02
(PID.TID 0000.0001) %MON dynstat_theta_mean           =   3.3326857201113E+02
(PID.TID 0000.0001) %MON dynstat_theta_sd             =   6.3575415946952E+01
(PID.TID 0000.0001) %MON dynstat_salt_max             =   1.6433777733014E+01
(PID.TID 0000.0001) %MON dynstat_salt_min             =  -4.3938702272864E+00
(PID.TID 0000.0001) %MON dynstat_salt_mean            =   1.9474129764775E+00
(PID.TID 0000.0001) %MON dynstat_salt_sd              =   3.4373471082666E+00
(PID.TID 0000.0001) %MON advcfl_uvel_max              =   3.2200389403410E-01
(PID.TID 0000.0001) %MON advcfl_vvel_max              =   4.9037027663675E-02
(PID.TID 0000.0001) %MON advcfl_wvel_max              =   4.6483091618538E-02
(PID.TID 0000.0001) %MON advcfl_W_hf_max              =   4.4673742707468E-02
(PID.TID 0000.0001) %MON ke_max                       =   1.8165169445309E+03
(PID.TID 0000.0001) %MON ke_mean                      =   1.2046971814843E+02
(PID.TID 0000.0001) // =======================================================
(PID.TID 0000.0001) // End MONITOR dynamic field statistics
(PID.TID 0000.0001) // =======================================================
 cg2d: Sum(rhs),rhsMax =  -1.26763621821624E-09  6.51852809576294E+02
(PID.TID 0000.0001)                    cg2d_init_res =    1.74685296860314E+01
(PID.TID 0000.0001)                       cg2d_iters =   135
(PID.TID 0000.0001)                         cg2d_res =    2.63818643209028E-12
(PID.TID 0000.0001) // =======================================================
(PID.TID 0000.0001) // Begin MONITOR dynamic field statistics
(PID.TID 0000.0001) // =======================================================
(PID.TID 0000.0001) %MON time_tsnumber                =                 17288
(PID.TID 0000.0001) %MON time_secondsf                =   7.7796000000000E+06
(PID.TID 0000.0001) %MON time_secondsi                =               7779600
(PID.TID 0000.0001) %MON dynstat_eta_max              =   2.4126782129983E+03
(PID.TID 0000.0001) %MON dynstat_eta_min              =  -3.4516152554666E+03
(PID.TID 0000.0001) %MON dynstat_eta_mean             =  -1.8184158992634E+02
(PID.TID 0000.0001) %MON dynstat_eta_sd               =   1.0817596917859E+03
(PID.TID 0000.0001) %MON dynstat_uvel_max             =   5.9181267024646E+01
(PID.TID 0000.0001) %MON dynstat_uvel_min             =  -2.3301214248704E+01
(PID.TID 0000.0001) %MON dynstat_uvel_mean            =   6.9694569766590E+00
(PID.TID 0000.0001) %MON dynstat_uvel_sd              =   1.2572288021693E+01
(PID.TID 0000.0001) %MON dynstat_vvel_max             =   3.0765799202787E+01
(PID.TID 0000.0001) %MON dynstat_vvel_min             =  -3.4089007829318E+01
(PID.TID 0000.0001) %MON dynstat_vvel_mean            =  -5.0300764162180E-02
(PID.TID 0000.0001) %MON dynstat_vvel_sd              =   6.0461080676405E+00
(PID.TID 0000.0001) %MON dynstat_wvel_max             =   1.5145111824483E+00
(PID.TID 0000.0001) %MON dynstat_wvel_min             =  -1.4035333461239E+00
(PID.TID 0000.0001) %MON dynstat_wvel_mean            =   3.8682819443105E-04
(PID.TID 0000.0001) %MON dynstat_wvel_sd              =   6.1972305343176E-02
(PID.TID 0000.0001) %MON dynstat_theta_max            =   4.7617044181936E+02
(PID.TID 0000.0001) %MON dynstat_theta_min            =   2.3938090781125E+02
(PID.TID 0000.0001) %MON dynstat_theta_mean           =   3.3327063433650E+02
(PID.TID 0000.0001) %MON dynstat_theta_sd             =   6.3573159227445E+01
(PID.TID 0000.0001) %MON dynstat_salt_max             =   1.6439666766794E+01
(PID.TID 0000.0001) %MON dynstat_salt_min             =  -4.3833298789798E+00
(PID.TID 0000.0001) %MON dynstat_salt_mean            =   1.9476232384932E+00
(PID.TID 0000.0001) %MON dynstat_salt_sd              =   3.4373983613772E+00
(PID.TID 0000.0001) %MON advcfl_uvel_max              =   3.2195532400846E-01
(PID.TID 0000.0001) %MON advcfl_vvel_max              =   4.9058870365045E-02
(PID.TID 0000.0001) %MON advcfl_wvel_max              =   4.6525268501343E-02
(PID.TID 0000.0001) %MON advcfl_W_hf_max              =   4.4663661238449E-02
(PID.TID 0000.0001) %MON ke_max                       =   1.8147582924475E+03
(PID.TID 0000.0001) %MON ke_mean                      =   1.2047304724511E+02
(PID.TID 0000.0001) // =======================================================
(PID.TID 0000.0001) // End MONITOR dynamic field statistics
(PID.TID 0000.0001) // =======================================================
 cg2d: Sum(rhs),rhsMax =  -8.25083557032258E-10  6.51097902890679E+02
(PID.TID 0000.0001)                    cg2d_init_res =    1.78827246112749E+01
(PID.TID 0000.0001)                       cg2d_iters =   133
(PID.TID 0000.0001)                         cg2d_res =    2.57411478401215E-12
(PID.TID 0000.0001) // =======================================================
(PID.TID 0000.0001) // Begin MONITOR dynamic field statistics
(PID.TID 0000.0001) // =======================================================
(PID.TID 0000.0001) %MON time_tsnumber                =                 17289
(PID.TID 0000.0001) %MON time_secondsf                =   7.7800500000000E+06
(PID.TID 0000.0001) %MON time_secondsi                =               7780050
(PID.TID 0000.0001) %MON dynstat_eta_max              =   2.4122351466565E+03
(PID.TID 0000.0001) %MON dynstat_eta_min              =  -3.4507288238130E+03
(PID.TID 0000.0001) %MON dynstat_eta_mean             =  -1.8197877874327E+02
(PID.TID 0000.0001) %MON dynstat_eta_sd               =   1.0815358949096E+03
(PID.TID 0000.0001) %MON dynstat_uvel_max             =   5.9188757180689E+01
(PID.TID 0000.0001) %MON dynstat_uvel_min             =  -2.3298897897222E+01
(PID.TID 0000.0001) %MON dynstat_uvel_mean            =   6.9698629962919E+00
(PID.TID 0000.0001) %MON dynstat_uvel_sd              =   1.2572873750473E+01
(PID.TID 0000.0001) %MON dynstat_vvel_max             =   3.0723207456335E+01
(PID.TID 0000.0001) %MON dynstat_vvel_min             =  -3.4101730315493E+01
(PID.TID 0000.0001) %MON dynstat_vvel_mean            =  -5.0776071334206E-02
(PID.TID 0000.0001) %MON dynstat_vvel_sd              =   6.0448957646359E+00
(PID.TID 0000.0001) %MON dynstat_wvel_max             =   1.5119460830381E+00
(PID.TID 0000.0001) %MON dynstat_wvel_min             =  -1.4024898042817E+00
(PID.TID 0000.0001) %MON dynstat_wvel_mean            =   3.8407062171304E-04
(PID.TID 0000.0001) %MON dynstat_wvel_sd              =   6.1976935930903E-02
(PID.TID 0000.0001) %MON dynstat_theta_max            =   4.7616345508501E+02
(PID.TID 0000.0001) %MON dynstat_theta_min            =   2.3945922150146E+02
(PID.TID 0000.0001) %MON dynstat_theta_mean           =   3.3327271111779E+02
(PID.TID 0000.0001) %MON dynstat_theta_sd             =   6.3570922101243E+01
(PID.TID 0000.0001) %MON dynstat_salt_max             =   1.6395258381304E+01
(PID.TID 0000.0001) %MON dynstat_salt_min             =  -4.3731061077001E+00
(PID.TID 0000.0001) %MON dynstat_salt_mean            =   1.9478166092515E+00
(PID.TID 0000.0001) %MON dynstat_salt_sd              =   3.4374147207960E+00
(PID.TID 0000.0001) %MON advcfl_uvel_max              =   3.2192496525892E-01
(PID.TID 0000.0001) %MON advcfl_vvel_max              =   4.9077179809635E-02
(PID.TID 0000.0001) %MON advcfl_wvel_max              =   4.6567915106635E-02
(PID.TID 0000.0001) %MON advcfl_W_hf_max              =   4.4657832072630E-02
(PID.TID 0000.0001) %MON ke_max                       =   1.8128768676406E+03
(PID.TID 0000.0001) %MON ke_mean                      =   1.2047604749241E+02
(PID.TID 0000.0001) // =======================================================
(PID.TID 0000.0001) // End MONITOR dynamic field statistics
(PID.TID 0000.0001) // =======================================================
 cg2d: Sum(rhs),rhsMax =  -7.10313585727818E-10  6.50339208141293E+02
(PID.TID 0000.0001)                    cg2d_init_res =    1.77578591445307E+01
(PID.TID 0000.0001)                       cg2d_iters =   135
(PID.TID 0000.0001)                         cg2d_res =    2.36077650723062E-12
(PID.TID 0000.0001) // =======================================================
(PID.TID 0000.0001) // Begin MONITOR dynamic field statistics
(PID.TID 0000.0001) // =======================================================
(PID.TID 0000.0001) %MON time_tsnumber                =                 17290
(PID.TID 0000.0001) %MON time_secondsf                =   7.7805000000000E+06
(PID.TID 0000.0001) %MON time_secondsi                =               7780500
(PID.TID 0000.0001) %MON dynstat_eta_max              =   2.4117953982468E+03
(PID.TID 0000.0001) %MON dynstat_eta_min              =  -3.4496882767687E+03
(PID.TID 0000.0001) %MON dynstat_eta_mean             =  -1.8211816704527E+02
(PID.TID 0000.0001) %MON dynstat_eta_sd               =   1.0813022101689E+03
(PID.TID 0000.0001) %MON dynstat_uvel_max             =   5.9194751518013E+01
(PID.TID 0000.0001) %MON dynstat_uvel_min             =  -2.3296807974667E+01
(PID.TID 0000.0001) %MON dynstat_uvel_mean            =   6.9702538304943E+00
(PID.TID 0000.0001) %MON dynstat_uvel_sd              =   1.2573448495011E+01
(PID.TID 0000.0001) %MON dynstat_vvel_max             =   3.0678652202947E+01
(PID.TID 0000.0001) %MON dynstat_vvel_min             =  -3.4111982660480E+01
(PID.TID 0000.0001) %MON dynstat_vvel_mean            =  -5.1298326807996E-02
(PID.TID 0000.0001) %MON dynstat_vvel_sd              =   6.0436661427729E+00
(PID.TID 0000.0001) %MON dynstat_wvel_max             =   1.5093620447190E+00
(PID.TID 0000.0001) %MON dynstat_wvel_min             =  -1.4014550089154E+00
(PID.TID 0000.0001) %MON dynstat_wvel_mean            =   3.8125165172626E-04
(PID.TID 0000.0001) %MON dynstat_wvel_sd              =   6.1988063815115E-02
(PID.TID 0000.0001) %MON dynstat_theta_max            =   4.7615610955674E+02
(PID.TID 0000.0001) %MON dynstat_theta_min            =   2.3953672006570E+02
(PID.TID 0000.0001) %MON dynstat_theta_mean           =   3.3327478079983E+02
(PID.TID 0000.0001) %MON dynstat_theta_sd             =   6.3568705129973E+01
(PID.TID 0000.0001) %MON dynstat_salt_max             =   1.6364882899993E+01
(PID.TID 0000.0001) %MON dynstat_salt_min             =  -4.3630073233618E+00
(PID.TID 0000.0001) %MON dynstat_salt_mean            =   1.9479973016536E+00
(PID.TID 0000.0001) %MON dynstat_salt_sd              =   3.4374060207015E+00
(PID.TID 0000.0001) %MON advcfl_uvel_max              =   3.2190453373288E-01
(PID.TID 0000.0001) %MON advcfl_vvel_max              =   4.9091934374102E-02
(PID.TID 0000.0001) %MON advcfl_wvel_max              =   4.6608739831113E-02
(PID.TID 0000.0001) %MON advcfl_W_hf_max              =   4.4647688473557E-02
(PID.TID 0000.0001) %MON ke_max                       =   1.8108716588041E+03
(PID.TID 0000.0001) %MON ke_mean                      =   1.2047870777498E+02
(PID.TID 0000.0001) // =======================================================
(PID.TID 0000.0001) // End MONITOR dynamic field statistics
(PID.TID 0000.0001) // =======================================================
(PID.TID 0000.0001)  Seconds in section "ALL                [THE_MODEL_MAIN]":
(PID.TID 0000.0001)          User time:   24.68999862670898
(PID.TID 0000.0001)        System time:  0.2500000000000000
(PID.TID 0000.0001)    Wall clock time:   24.95354008674622
(PID.TID 0000.0001)         No. starts:           1
(PID.TID 0000.0001)          No. stops:           1
(PID.TID 0000.0001)  Seconds in section "INITIALISE_FIXED   [THE_MODEL_MAIN]":
(PID.TID 0000.0001)          User time:  0.2599999904632568
(PID.TID 0000.0001)        System time:  2.9999999329447746E-002
(PID.TID 0000.0001)    Wall clock time:  0.2966560125350952
(PID.TID 0000.0001)         No. starts:           1
(PID.TID 0000.0001)          No. stops:           1
(PID.TID 0000.0001)  Seconds in section "THE_MAIN_LOOP      [THE_MODEL_MAIN]":
(PID.TID 0000.0001)          User time:   24.36999917030334
(PID.TID 0000.0001)        System time:  0.1999999899417162
(PID.TID 0000.0001)    Wall clock time:   24.57351100444794
(PID.TID 0000.0001)         No. starts:           1
(PID.TID 0000.0001)          No. stops:           1
(PID.TID 0000.0001)  Seconds in section "INITIALISE_VARIA    [THE_MAIN_LOOP]":
(PID.TID 0000.0001)          User time:  0.1699999868869781
(PID.TID 0000.0001)        System time:  5.9999996796250343E-002
(PID.TID 0000.0001)    Wall clock time:  0.2300230264663696
(PID.TID 0000.0001)         No. starts:           1
(PID.TID 0000.0001)          No. stops:           1
(PID.TID 0000.0001)  Seconds in section "WRITE_STATE         [THE_MAIN_LOOP]":
(PID.TID 0000.0001)          User time:  2.0000010728836060E-002
(PID.TID 0000.0001)        System time:  2.0000003278255463E-002
(PID.TID 0000.0001)    Wall clock time:  3.6067962646484375E-002
(PID.TID 0000.0001)         No. starts:           1
(PID.TID 0000.0001)          No. stops:           1
(PID.TID 0000.0001)  Seconds in section "MONITOR             [THE_MAIN_LOOP]":
(PID.TID 0000.0001)          User time:  5.0000011920928955E-002
(PID.TID 0000.0001)        System time:  0.0000000000000000E+000
(PID.TID 0000.0001)    Wall clock time:  5.4067015647888184E-002
(PID.TID 0000.0001)         No. starts:           1
(PID.TID 0000.0001)          No. stops:           1
(PID.TID 0000.0001)  Seconds in section "MAIN LOOP           [THE_MAIN_LOOP]":
(PID.TID 0000.0001)          User time:   24.12999916076660
(PID.TID 0000.0001)        System time:  0.1199999898672104
(PID.TID 0000.0001)    Wall clock time:   24.25260090827942
(PID.TID 0000.0001)         No. starts:           1
(PID.TID 0000.0001)          No. stops:           1
(PID.TID 0000.0001)  Seconds in section "FORWARD_STEP        [THE_MAIN_LOOP]":
(PID.TID 0000.0001)          User time:   24.12999916076660
(PID.TID 0000.0001)        System time:  0.1199999898672104
(PID.TID 0000.0001)    Wall clock time:   24.25097799301147
(PID.TID 0000.0001)         No. starts:          10
(PID.TID 0000.0001)          No. stops:          10
(PID.TID 0000.0001)  Seconds in section "EXTERNAL_FIELDS_LOAD[THE_MAIN_LOOP]":
(PID.TID 0000.0001)          User time:  1.0000228881835938E-002
(PID.TID 0000.0001)        System time:  0.0000000000000000E+000
(PID.TID 0000.0001)    Wall clock time:  5.2268505096435547E-003
(PID.TID 0000.0001)         No. starts:          10
(PID.TID 0000.0001)          No. stops:          10
(PID.TID 0000.0001)  Seconds in section "THERMODYNAMICS      [THE_MAIN_LOOP]":
(PID.TID 0000.0001)          User time:   7.800002098083496
(PID.TID 0000.0001)        System time:  8.9999988675117493E-002
(PID.TID 0000.0001)    Wall clock time:   7.887416005134583
(PID.TID 0000.0001)         No. starts:          10
(PID.TID 0000.0001)          No. stops:          10
(PID.TID 0000.0001)  Seconds in section "AIM_DO_ATMOS_PHYS      [DYNAMICS]":
(PID.TID 0000.0001)          User time:   5.049999237060547
(PID.TID 0000.0001)        System time:  5.9999987483024597E-002
(PID.TID 0000.0001)    Wall clock time:   5.094019055366516
(PID.TID 0000.0001)         No. starts:          10
(PID.TID 0000.0001)          No. stops:          10
(PID.TID 0000.0001)  Seconds in section "DYNAMICS            [THE_MAIN_LOOP]":
(PID.TID 0000.0001)          User time:   4.170000910758972
(PID.TID 0000.0001)        System time:  1.0000005364418030E-002
(PID.TID 0000.0001)    Wall clock time:   4.185958027839661
(PID.TID 0000.0001)         No. starts:          10
(PID.TID 0000.0001)          No. stops:          10
(PID.TID 0000.0001)  Seconds in section "SOLVE_FOR_PRESSURE  [THE_MAIN_LOOP]":
(PID.TID 0000.0001)          User time:   7.789996743202209
(PID.TID 0000.0001)        System time:  0.0000000000000000E+000
(PID.TID 0000.0001)    Wall clock time:   7.802516818046570
(PID.TID 0000.0001)         No. starts:          10
(PID.TID 0000.0001)          No. stops:          10
(PID.TID 0000.0001)  Seconds in section "THE_CORRECTION_STEP [THE_MAIN_LOOP]":
(PID.TID 0000.0001)          User time:   3.710000514984131
(PID.TID 0000.0001)        System time:  1.0000005364418030E-002
(PID.TID 0000.0001)    Wall clock time:   3.716255784034729
(PID.TID 0000.0001)         No. starts:          10
(PID.TID 0000.0001)          No. stops:          10
(PID.TID 0000.0001)  Seconds in section "BLOCKING_EXCHANGES  [THE_MAIN_LOOP]":
(PID.TID 0000.0001)          User time:  9.9999904632568359E-003
(PID.TID 0000.0001)        System time:  0.0000000000000000E+000
(PID.TID 0000.0001)    Wall clock time:  3.2637119293212891E-002
(PID.TID 0000.0001)         No. starts:          10
(PID.TID 0000.0001)          No. stops:          10
(PID.TID 0000.0001)  Seconds in section "DO_THE_MODEL_IO     [THE_MAIN_LOOP]":
(PID.TID 0000.0001)          User time:  2.0000457763671875E-002
(PID.TID 0000.0001)        System time:  9.9999904632568359E-003
(PID.TID 0000.0001)    Wall clock time:  3.5139203071594238E-002
(PID.TID 0000.0001)         No. starts:          10
(PID.TID 0000.0001)          No. stops:          10
(PID.TID 0000.0001)  Seconds in section "WRITE_CHECKPOINT    [THE_MAIN_LOOP]":
(PID.TID 0000.0001)          User time:  0.0000000000000000E+000
(PID.TID 0000.0001)        System time:  0.0000000000000000E+000
(PID.TID 0000.0001)    Wall clock time:  1.4990568161010742E-003
(PID.TID 0000.0001)         No. starts:          10
(PID.TID 0000.0001)          No. stops:          10
(PID.TID 0000.0001)  Seconds in section "WRITE_CHECKPOINT   [THE_MODEL_MAIN]":
(PID.TID 0000.0001)          User time:  5.9999465942382813E-002
(PID.TID 0000.0001)        System time:  2.0000010728836060E-002
(PID.TID 0000.0001)    Wall clock time:  8.2710981369018555E-002
(PID.TID 0000.0001)         No. starts:           1
(PID.TID 0000.0001)          No. stops:           1
(PID.TID 0000.0001) // ====================================NORMAL END
==================
(PID.TID 0000.0001) // Tile <-> Tile communication statistics
(PID.TID 0000.0001) // ======================================================
(PID.TID 0000.0001) // o Tile number: 000001
(PID.TID 0000.0001) //         No. X exchanges =              0
(PID.TID 0000.0001) //            Max. X spins =              0
(PID.TID 0000.0001) //            Min. X spins =     1000000000
(PID.TID 0000.0001) //          Total. X spins =              0
(PID.TID 0000.0001) //            Avg. X spins =       0.00E+00
(PID.TID 0000.0001) //         No. Y exchanges =              0
(PID.TID 0000.0001) //            Max. Y spins =              0
(PID.TID 0000.0001) //            Min. Y spins =     1000000000
(PID.TID 0000.0001) //          Total. Y spins =              0
(PID.TID 0000.0001) //            Avg. Y spins =       0.00E+00
(PID.TID 0000.0001) // o Thread number: 000001
(PID.TID 0000.0001) //            No. barriers =          18793
(PID.TID 0000.0001) //      Max. barrier spins =              1
(PID.TID 0000.0001) //      Min. barrier spins =              1
(PID.TID 0000.0001) //     Total barrier spins =          18793
(PID.TID 0000.0001) //      Avg. barrier spins =       1.00E+00
