(PID.TID 0000.0001) 
(PID.TID 0000.0001) // ======================================================
(PID.TID 0000.0001) //                      MITgcm UV
(PID.TID 0000.0001) //                      =========
(PID.TID 0000.0001) // ======================================================
(PID.TID 0000.0001) // execution environment starting up...
(PID.TID 0000.0001) // Run starting Wed Apr  1 14:19:48 1998
(PID.TID 0000.0001) // on melville.lcs.mit.edu
(PID.TID 0000.0001) // account cnh
(PID.TID 0000.0001) // MITgcm UV Release: $Name:  $
(PID.TID 0000.0001) 
(PID.TID 0000.0001) // =======================================================
(PID.TID 0000.0001) // Execution Environment parameter file "eedata"
(PID.TID 0000.0001) // =======================================================
(PID.TID 0000.0001) ># Example "eedata" file
(PID.TID 0000.0001) ># Lines beginning "#" are comments
(PID.TID 0000.0001) ># nTx - No. threads per process in X
(PID.TID 0000.0001) ># nTy - No. threads per process in Y
(PID.TID 0000.0001) > &EEPARMS
(PID.TID 0000.0001) > &
(PID.TID 0000.0001) ># Note: Some systems use & as the
(PID.TID 0000.0001) ># namelist terminator. Other systems
(PID.TID 0000.0001) ># use a / character (as shown here).
(PID.TID 0000.0001) 
(PID.TID 0000.0001) // =======================================================
(PID.TID 0000.0001) // Computational Grid Specification ( see files "SIZE.h" )
(PID.TID 0000.0001) //                                  ( and "eedata"       )
(PID.TID 0000.0001) // =======================================================
(PID.TID 0000.0001)      nPx =    1 ; /* No. processes in X */
(PID.TID 0000.0001)      nPy =    1 ; /* No. processes in Y */
(PID.TID 0000.0001)      nSx =    1 ; /* No. tiles in X per process */
(PID.TID 0000.0001)      nSy =    1 ; /* No. tiles in Y per process */
(PID.TID 0000.0001)      sNx =  128 ; /* Tile size in X */
(PID.TID 0000.0001)      sNy =   64 ; /* Tile size in Y */
(PID.TID 0000.0001)      OLx =    5 ; /* Tile overlap distance in X */
(PID.TID 0000.0001)      OLy =    5 ; /* Tile overlap distance in Y */
(PID.TID 0000.0001)      nTx =    1 ; /* No. threads in X per process */
(PID.TID 0000.0001)      nTy =    1 ; /* No. threads in Y per process */
(PID.TID 0000.0001)       Nr =    5 ; /* No. levels in the vertical   */
(PID.TID 0000.0001)       nX =  128 ; /* Total domain size in X ( = nPx*nSx*sNx ) */
(PID.TID 0000.0001)       nY =   64 ; /* Total domain size in Y ( = nPy*nSy*sNy ) */
(PID.TID 0000.0001)   nTiles =    1 ; /* Total no. tiles per process ( = nSx*nSy ) */
(PID.TID 0000.0001)   nProcs =    1 ; /* Total no. processes ( = nPx*nPy ) */
(PID.TID 0000.0001) nThreads =    1 ; /* Total no. threads per process ( = nTx*nTy ) */
(PID.TID 0000.0001) usingMPI =    F ; /* Flag used to control whether MPI is in use */
(PID.TID 0000.0001)                   /*  note: To execute a program with MPI calls */
(PID.TID 0000.0001)                   /*  it must be launched appropriately e.g     */
(PID.TID 0000.0001)                   /*  "mpirun -np 64 ......"                    */
(PID.TID 0000.0001) 
(PID.TID 0000.0001) // ======================================================
(PID.TID 0000.0001) // Mapping of tiles to threads
(PID.TID 0000.0001) // ======================================================
(PID.TID 0000.0001) // -o- Thread   1, tiles (   1:   1,   1:   1)
(PID.TID 0000.0001) 
(PID.TID 0000.0001) // ======================================================
(PID.TID 0000.0001) // Tile <-> Tile connectvity table
(PID.TID 0000.0001) // ======================================================
(PID.TID 0000.0001) // Tile number: 000001 (process no. = 000001)
(PID.TID 0000.0001) //        WEST: Tile = 000001, Process = 000001, Comm = put
(PID.TID 0000.0001) //                bi = 000001, bj = 000001
(PID.TID 0000.0001) //        EAST: Tile = 000001, Process = 000001, Comm = put
(PID.TID 0000.0001) //                bi = 000001, bj = 000001
(PID.TID 0000.0001) //       SOUTH: Tile = 000001, Process = 000001, Comm = put
(PID.TID 0000.0001) //                bi = 000001, bj = 000001
(PID.TID 0000.0001) //       NORTH: Tile = 000001, Process = 000001, Comm = put
(PID.TID 0000.0001) //                bi = 000001, bj = 000001
(PID.TID 0000.0001) 
(PID.TID 0000.0001) // =======================================================
(PID.TID 0000.0001) // Model parameter file "data"
(PID.TID 0000.0001) // =======================================================
(PID.TID 0000.0001) ># ====================
(PID.TID 0000.0001) ># | Model parameters |
(PID.TID 0000.0001) ># ====================
(PID.TID 0000.0001) >#
(PID.TID 0000.0001) ># Continuous equation parameters
(PID.TID 0000.0001) > &PARM01
(PID.TID 0000.0001) > tRef=281.089, 289.321, 307.191, 331.377, 432.413,
(PID.TID 0000.0001) > sRef=5*0.,
(PID.TID 0000.0001) > viscAr=0.E3,
(PID.TID 0000.0001) > viscAh=0.E6,
(PID.TID 0000.0001) > viscA4=0.E17,
(PID.TID 0000.0001) > no_slip_sides=.FALSE.,
(PID.TID 0000.0001) > no_slip_bottom=.FALSE.,
(PID.TID 0000.0001) > diffKhT=0.E3,
(PID.TID 0000.0001) > diffKrT=0.,
(PID.TID 0000.0001) > diffK4T=0.E17,
(PID.TID 0000.0001) > diffKrS=0.E2,
(PID.TID 0000.0001) > diffKhS=0.E3,
(PID.TID 0000.0001) > diffK4S=0.E17,
(PID.TID 0000.0001) > buoyancyRelation='ATMOSPHERIC',
(PID.TID 0000.0001) > eosType='IDEALGAS',
(PID.TID 0000.0001) > Integr_GeoPot=1,
(PID.TID 0000.0001) > gravity=9.81,
(PID.TID 0000.0001) > rhonil=1.0,
(PID.TID 0000.0001) > rhoConst=1.0,
(PID.TID 0000.0001) > rigidLid=.FALSE.,
(PID.TID 0000.0001) > implicitFreeSurface=.TRUE.,
(PID.TID 0000.0001) > staggerTimeStep=.TRUE.,
(PID.TID 0000.0001) > nonHydrostatic=.FALSE.,
(PID.TID 0000.0001) > readBinaryPrec=64,
(PID.TID 0000.0001) > writeBinaryPrec=64,
(PID.TID 0000.0001) > hFacMin=1.0,
(PID.TID 0000.0001) > zonal_filt_lat=45.0,
(PID.TID 0000.0001) > &
(PID.TID 0000.0001) >
(PID.TID 0000.0001) ># Elliptic solver parameters
(PID.TID 0000.0001) > &PARM02
(PID.TID 0000.0001) > cg2dMaxIters=200,
(PID.TID 0000.0001) >#cg2dTargetResidual=1.E-12,
(PID.TID 0000.0001) > cg2dTargetResWunit=1.E-17,
(PID.TID 0000.0001) > &
(PID.TID 0000.0001) >
(PID.TID 0000.0001) ># Time stepping parameters
(PID.TID 0000.0001) > &PARM03
(PID.TID 0000.0001) > niter0=25920,
(PID.TID 0000.0001) > nTimeSteps=10,
(PID.TID 0000.0001) >#endTime=31104000.,
(PID.TID 0000.0001) > deltaT=300.0,
(PID.TID 0000.0001) > abEps=0.1,
(PID.TID 0000.0001) > cAdjFreq=0.,
(PID.TID 0000.0001) > pChkptFreq=2592000.0,
(PID.TID 0000.0001) > chkptFreq=0.0,
(PID.TID 0000.0001) > dumpFreq=2592000.0,
(PID.TID 0000.0001) > taveFreq=2592000.0,
(PID.TID 0000.0001) > monitorFreq=1.0,
(PID.TID 0000.0001) > &
(PID.TID 0000.0001) >
(PID.TID 0000.0001) ># Gridding parameters
(PID.TID 0000.0001) > &PARM04
(PID.TID 0000.0001) > usingCartesianGrid=.FALSE.,
(PID.TID 0000.0001) > usingSphericalPolarGrid=.TRUE.,
(PID.TID 0000.0001) > delX=128*2.8125,
(PID.TID 0000.0001) > delY=64*2.8125,
(PID.TID 0000.0001) > delR=1.E4, 2.5E4, 3.E4, 2.E4, 1.5E4,
(PID.TID 0000.0001) > Ro_SeaLevel=1.E5,
(PID.TID 0000.0001) > groundAtK1=.TRUE.,
(PID.TID 0000.0001) > phiMin=-90.,
(PID.TID 0000.0001) > rSphere=6370.E3,
(PID.TID 0000.0001) > &
(PID.TID 0000.0001) >
(PID.TID 0000.0001) ># Input datasets
(PID.TID 0000.0001) > &PARM05
(PID.TID 0000.0001) > bathyFile='orography_fullcell.bin',
(PID.TID 0000.0001) > &
(PID.TID 0000.0001) 
(PID.TID 0000.0001) %MON XC_max                       =   3.5859375000000E+02
(PID.TID 0000.0001) %MON XC_min                       =   1.4062500000000E+00
(PID.TID 0000.0001) %MON XC_mean                      =   1.8000000000000E+02
(PID.TID 0000.0001) %MON XC_sd                        =   1.0391987692599E+02
(PID.TID 0000.0001) %MON XG_max                       =   3.5718750000000E+02
(PID.TID 0000.0001) %MON XG_min                       =   2.8125000000000E+00
(PID.TID 0000.0001) %MON XG_mean                      =   1.8000000000000E+02
(PID.TID 0000.0001) %MON XG_sd                        =   1.0310795313651E+02
(PID.TID 0000.0001) %MON DXC_max                      =   3.1259246843155E+05
(PID.TID 0000.0001) %MON DXC_min                      =   7.6737143816223E+03
(PID.TID 0000.0001) %MON DXC_mean                     =   1.9908248704234E+05
(PID.TID 0000.0001) %MON DXC_sd                       =   9.6190602240068E+04
(PID.TID 0000.0001) %MON DXF_max                      =   3.1259246843155E+05
(PID.TID 0000.0001) %MON DXF_min                      =   7.6737143816223E+03
(PID.TID 0000.0001) %MON DXF_mean                     =   1.9908248704234E+05
(PID.TID 0000.0001) %MON DXF_sd                       =   9.6190602240068E+04
(PID.TID 0000.0001) %MON DXG_max                      =   3.1268664380261E+05
(PID.TID 0000.0001) %MON DXG_min                      =   1.5342806404640E+04
(PID.TID 0000.0001) %MON DXG_mean                     =   2.0218161485138E+05
(PID.TID 0000.0001) %MON DXG_sd                       =   9.3728538420912E+04
(PID.TID 0000.0001) %MON DXV_max                      =   3.1268664380261E+05
(PID.TID 0000.0001) %MON DXV_min                      =   1.5342806404640E+04
(PID.TID 0000.0001) %MON DXV_mean                     =   2.0218161485138E+05
(PID.TID 0000.0001) %MON DXV_sd                       =   9.3728538420912E+04
(PID.TID 0000.0001) %MON YC_max                       =   8.8593750000000E+01
(PID.TID 0000.0001) %MON YC_min                       =  -8.8593750000000E+01
(PID.TID 0000.0001) %MON YC_mean                      =   0.0000000000000E+00
(PID.TID 0000.0001) %MON YC_sd                        =   5.1955180880375E+01
(PID.TID 0000.0001) %MON YG_max                       =   8.7187500000000E+01
(PID.TID 0000.0001) %MON YG_min                       =  -9.0000000000000E+01
(PID.TID 0000.0001) %MON YG_mean                      =  -1.4285714285714E+00
(PID.TID 0000.0001) %MON YG_sd                        =   5.2365595692639E+01
(PID.TID 0000.0001) %MON DYC_max                      =   3.1268664380261E+05
(PID.TID 0000.0001) %MON DYC_min                      =   3.1268664380261E+05
(PID.TID 0000.0001) %MON DYC_mean                     =   3.1268664380263E+05
(PID.TID 0000.0001) %MON DYC_sd                       =   2.4156179279089E-08
(PID.TID 0000.0001) %MON DYF_max                      =   3.1268664380261E+05
(PID.TID 0000.0001) %MON DYF_min                      =   3.1268664380261E+05
(PID.TID 0000.0001) %MON DYF_mean                     =   3.1268664380263E+05
(PID.TID 0000.0001) %MON DYF_sd                       =   2.4156179279089E-08
(PID.TID 0000.0001) %MON DYG_max                      =   3.1268664380261E+05
(PID.TID 0000.0001) %MON DYG_min                      =   3.1268664380261E+05
(PID.TID 0000.0001) %MON DYG_mean                     =   3.1268664380263E+05
(PID.TID 0000.0001) %MON DYG_sd                       =   2.4156179279089E-08
(PID.TID 0000.0001) %MON DYU_max                      =   3.1268664380261E+05
(PID.TID 0000.0001) %MON DYU_min                      =   3.1268664380261E+05
(PID.TID 0000.0001) %MON DYU_mean                     =   3.1268664380263E+05
(PID.TID 0000.0001) %MON DYU_sd                       =   2.4156179279089E-08
(PID.TID 0000.0001) %MON RA_max                       =   9.7733676797555E+10
(PID.TID 0000.0001) %MON RA_min                       =   2.3992270990190E+09
(PID.TID 0000.0001) %MON RA_mean                      =   6.2244185031957E+10
(PID.TID 0000.0001) %MON RA_sd                        =   3.0074496923945E+10
(PID.TID 0000.0001) %MON RAW_max                      =   9.7733676797555E+10
(PID.TID 0000.0001) %MON RAW_min                      =   2.3992270990190E+09
(PID.TID 0000.0001) %MON RAW_mean                     =   6.2244185031957E+10
(PID.TID 0000.0001) %MON RAW_sd                       =   3.0074496923945E+10
(PID.TID 0000.0001) %MON RAS_max                      =   9.7763121221868E+10
(PID.TID 0000.0001) %MON RAS_min                      =   4.7970089933466E+09
(PID.TID 0000.0001) %MON RAS_mean                     =   6.3213143616158E+10
(PID.TID 0000.0001) %MON RAS_sd                       =   2.9304719741649E+10
(PID.TID 0000.0001) %MON RAZ_max                      =   9.7763121221868E+10
(PID.TID 0000.0001) %MON RAZ_min                      =   4.7970089933466E+09
(PID.TID 0000.0001) %MON RAZ_mean                     =   6.3213143616158E+10
(PID.TID 0000.0001) %MON RAZ_sd                       =   2.9304719741649E+10
(PID.TID 0000.0001)  MDSREADFIELD: opening global file: orography_fullcell.bin
(PID.TID 0000.0001) // =======================================================
(PID.TID 0000.0001) // Field Model R_low (ini_masks_etc) at iteration          1
(PID.TID 0000.0001) // CMIN =          1.000000000000000E+32
(PID.TID 0000.0001) // CMAX =         -1.000000000000000E+32
(PID.TID 0000.0001) // CINT =          0.000000000000000E+00
(PID.TID 0000.0001) // SYMBOLS (CMIN->CMAX): -abcdefghijklmnopqrstuvwxyz+
(PID.TID 0000.0001) //                  0.0: .
(PID.TID 0000.0001) // RANGE I (Lo:Hi:Step):(  -4: 133:   1)
(PID.TID 0000.0001) // RANGE J (Lo:Hi:Step):(  69:  -4:  -1)
(PID.TID 0000.0001) // RANGE K (Lo:Hi:Step):(   1:   1:   1)
(PID.TID 0000.0001) // =======================================================
(PID.TID 0000.0001) K =   1
(PID.TID 0000.0001) //                I=5       I=15      I=25      I=35      I=45      I=55      I=65      I=75      I=85      I=95      I=105     I=115     I=125
(PID.TID 0000.0001) // |--J--|****01234|678901234|678901234|678901234|678901234|678901234|678901234|678901234|678901234|678901234|678901234|678901234|678901234|67890123
(PID.TID 0000.0001) //     69 ..........................................................................................................................................
(PID.TID 0000.0001) //     68 ..........................................................................................................................................
(PID.TID 0000.0001) //     67 ..........................................................................................................................................
(PID.TID 0000.0001) //     66 ..........................................................................................................................................
(PID.TID 0000.0001) //     65 ..........................................................................................................................................
(PID.TID 0000.0001) //     64 ..........................................................................................................................................
(PID.TID 0000.0001) //     63 ..........................................................................................................................................
(PID.TID 0000.0001) //     62 ..........................................................................................................................................
(PID.TID 0000.0001) //     61 ..........................................................................................................................................
(PID.TID 0000.0001) //     60 ..........................................................................................................................................
(PID.TID 0000.0001) //     59 ..........................................................................................................................................
(PID.TID 0000.0001) //     58 ..........................................................................................................................................
(PID.TID 0000.0001) //     57 ..........................................................................................................................................
(PID.TID 0000.0001) //     56 ..........................................................................................................................................
(PID.TID 0000.0001) //     55 ..........................................................................................................................................
(PID.TID 0000.0001) //     54 ..........................................................................................................................................
(PID.TID 0000.0001) //     53 ..........................................................................................................................................
(PID.TID 0000.0001) //     52 ..........................................................................................................................................
(PID.TID 0000.0001) //     51 ..........................................................................................................................................
(PID.TID 0000.0001) //     50 ..........................................................................................................................................
(PID.TID 0000.0001) //     49 ..........................................................................................................................................
(PID.TID 0000.0001) //     48 ..........................................................................................................................................
(PID.TID 0000.0001) //     47 ..........................................................................................................................................
(PID.TID 0000.0001) //     46 ..........................................................................................................................................
(PID.TID 0000.0001) //     45 ..........................................................................................................................................
(PID.TID 0000.0001) //     44 ..........................................................................................................................................
(PID.TID 0000.0001) //     43 ..........................................................................................................................................
(PID.TID 0000.0001) //     42 ..........................................................................................................................................
(PID.TID 0000.0001) //     41 ..........................................................................................................................................
(PID.TID 0000.0001) //     40 ..........................................................................................................................................
(PID.TID 0000.0001) //     39 ..........................................................................................................................................
(PID.TID 0000.0001) //     38 ..........................................................................................................................................
(PID.TID 0000.0001) //     37 ..........................................................................................................................................
(PID.TID 0000.0001) //     36 ..........................................................................................................................................
(PID.TID 0000.0001) //     35 ..........................................................................................................................................
(PID.TID 0000.0001) //     34 ..........................................................................................................................................
(PID.TID 0000.0001) //     33 ..........................................................................................................................................
(PID.TID 0000.0001) //     32 ..........................................................................................................................................
(PID.TID 0000.0001) //     31 ..........................................................................................................................................
(PID.TID 0000.0001) //     30 ..........................................................................................................................................
(PID.TID 0000.0001) //     29 ..........................................................................................................................................
(PID.TID 0000.0001) //     28 ..........................................................................................................................................
(PID.TID 0000.0001) //     27 ..........................................................................................................................................
(PID.TID 0000.0001) //     26 ..........................................................................................................................................
(PID.TID 0000.0001) //     25 ..........................................................................................................................................
(PID.TID 0000.0001) //     24 ..........................................................................................................................................
(PID.TID 0000.0001) //     23 ..........................................................................................................................................
(PID.TID 0000.0001) //     22 ..........................................................................................................................................
(PID.TID 0000.0001) //     21 ..........................................................................................................................................
(PID.TID 0000.0001) //     20 ..........................................................................................................................................
(PID.TID 0000.0001) //     19 ..........................................................................................................................................
(PID.TID 0000.0001) //     18 ..........................................................................................................................................
(PID.TID 0000.0001) //     17 ..........................................................................................................................................
(PID.TID 0000.0001) //     16 ..........................................................................................................................................
(PID.TID 0000.0001) //     15 ..........................................................................................................................................
(PID.TID 0000.0001) //     14 ..........................................................................................................................................
(PID.TID 0000.0001) //     13 ..........................................................................................................................................
(PID.TID 0000.0001) //     12 ..........................................................................................................................................
(PID.TID 0000.0001) //     11 ..........................................................................................................................................
(PID.TID 0000.0001) //     10 ..........................................................................................................................................
(PID.TID 0000.0001) //      9 ..........................................................................................................................................
(PID.TID 0000.0001) //      8 ..........................................................................................................................................
(PID.TID 0000.0001) //      7 ..........................................................................................................................................
(PID.TID 0000.0001) //      6 ..........................................................................................................................................
(PID.TID 0000.0001) //      5 ..........................................................................................................................................
(PID.TID 0000.0001) //      4 ..........................................................................................................................................
(PID.TID 0000.0001) //      3 ..........................................................................................................................................
(PID.TID 0000.0001) //      2 ..........................................................................................................................................
(PID.TID 0000.0001) //      1 ..........................................................................................................................................
(PID.TID 0000.0001) //      0 ..........................................................................................................................................
(PID.TID 0000.0001) //     -1 ..........................................................................................................................................
(PID.TID 0000.0001) //     -2 ..........................................................................................................................................
(PID.TID 0000.0001) //     -3 ..........................................................................................................................................
(PID.TID 0000.0001) //     -4 ..........................................................................................................................................
(PID.TID 0000.0001) // =======================================================
(PID.TID 0000.0001) // END OF FIELD                                          =
(PID.TID 0000.0001) // =======================================================
(PID.TID 0000.0001) 
(PID.TID 0000.0001) // =======================================================
(PID.TID 0000.0001) // Field Model Ro_surf (ini_masks_etc) at iteration          1
(PID.TID 0000.0001) // CMIN =          6.500000000000000E+04
(PID.TID 0000.0001) // CMAX =          1.000000000000000E+05
(PID.TID 0000.0001) // CINT =          1.296296296296296E+03
(PID.TID 0000.0001) // SYMBOLS (CMIN->CMAX): -abcdefghijklmnopqrstuvwxyz+
(PID.TID 0000.0001) //                  0.0: .
(PID.TID 0000.0001) // RANGE I (Lo:Hi:Step):(  -4: 133:   1)
(PID.TID 0000.0001) // RANGE J (Lo:Hi:Step):(  69:  -4:  -1)
(PID.TID 0000.0001) // RANGE K (Lo:Hi:Step):(   1:   1:   1)
(PID.TID 0000.0001) // =======================================================
(PID.TID 0000.0001) K =   1
(PID.TID 0000.0001) //                I=5       I=15      I=25      I=35      I=45      I=55      I=65      I=75      I=85      I=95      I=105     I=115     I=125
(PID.TID 0000.0001) // |--J--|****01234|678901234|678901234|678901234|678901234|678901234|678901234|678901234|678901234|678901234|678901234|678901234|678901234|67890123
(PID.TID 0000.0001) //     69 ..........................................................................................................................................
(PID.TID 0000.0001) //     68 ..........................................................................................................................................
(PID.TID 0000.0001) //     67 ..........................................................................................................................................
(PID.TID 0000.0001) //     66 ..........................................................................................................................................
(PID.TID 0000.0001) //     65 ..........................................................................................................................................
(PID.TID 0000.0001) //     64 ++++++++++++++++++++++++++++++++++++++++++++++++++++++++++++++++++++++++++++++++++++++++++++++++++++++++++++++++++++++++++++++++++++++++++
(PID.TID 0000.0001) //     63 ++++++++++++++++++++++++++++++++++++++++++++++++++++++++++++++++++++++++++++++++++++++++++++++++++++++++++++++++++++++++++++++++++++++++++
(PID.TID 0000.0001) //     62 +++++++++++++++++++++++++++++++++++++++++++++++++++++++++++++++++++++++++++++++++++++++++++++++++++++++++ss+++++++++++++s+++++++++++++++++
(PID.TID 0000.0001) //     61 +++++++++++++++++++++++++++++++++++++++++++++++++++++++++++++++++++++++++++++++++++++++++++++++++++++sssssss++ssssssssssssssss++++++++++++
(PID.TID 0000.0001) //     60 +++++++++++++++++++++++++++++++++++++++++++++++++++++++++++++++++++++++++++++++++++++++++++++++++++++++ss+++sssss---------sss+++++++++++++
(PID.TID 0000.0001) //     59 +++++++++++++++++++++++++++++++++++++++++++++++++++++++++++++++++++++++++++++++++++++++++++++++++++++++++++++++++ss--------sss++++++++++++
(PID.TID 0000.0001) //     58 ++++++++++++++++++++++++++++++++++++++++++++++++++++++++++++++++++++++++++++++++++++++++++++++++++++++++++++++++++ss------ss++++++++++++++
(PID.TID 0000.0001) //     57 +++++++++++ss++++++++++++++++++++++++ssss+++++++++ss+ss++++++++++++s++++++++ssssssss+++++++++++++++++++++++++++++++ss----ss+++++++++++++++
(PID.TID 0000.0001) //     56 ++++++++++ss++++++++++++++++++++++++++sssssss+++++ssssssss+++sssss++++++++++++ss++sssss++++++++++++++++++++++++++++s--ss++++++++++++++++++
(PID.TID 0000.0001) //     55 ++++++++sss+++++++++++++++++++++++++++ssss++++++++++ssssssssssss++s+++++++++++sssssssssss++++++++++++++++++++++++++s-s++++++++++++++++++ss
(PID.TID 0000.0001) //     54 +++++++ss+++++++++++++++++++++++++++++s++ssssss++s+++sssssss++++++++++++++++++s++sssssssss+++++s+++++++++++++++++++++++++++++++++++++++ss+
(PID.TID 0000.0001) //     53 ++++++++++++++++++++++++++++++++++++++++++sssssssssssss++++++++++++++++++++++++++++++ssssssss+ss++++++++++++++++++++++++++++++++++++++++++
(PID.TID 0000.0001) //     52 ++++++++++++++++++++++++++++++++++++sssssssssssssssss++++++++s+++++++++++++++++++++++++sssssssss+++++++++++ssss+++++++++++++++++++++++++++
(PID.TID 0000.0001) //     51 +++++++++++++++++++++++++++++++++++sssssssssssssss+sss++++++++++++++++++++++++++++++++++sssssssss++++++++++ssss+++++++++++++++++++++++++++
(PID.TID 0000.0001) //     50 +++++++++ssss++++++++++++++++sssssss-ss-sssssssss+++++s++++++++++++++++++++++++++++++++++sssssssss+++++++++++++++++++++++++++++++++++++++s
(PID.TID 0000.0001) //     49 ++++++sssss++ss+++++++++++++++sssssssss--ssssssss++++s+++++++++++++++++++++++++++++++++++sssssssss++++++++++++++++++++++++++++++++++++ssss
(PID.TID 0000.0001) //     48 +++++s+++++sss+++++sss+++++++ssss--sssssssssssss++ss+++++++++++++++++++++++++++++++++++++ssss-sssss++++++++++++++++++++++++++++++++++s++++
(PID.TID 0000.0001) //     47 ++ssss++++++s+++ssssss+++++++ss--sssssssssssssss+ss++++++++++++++++++++++++++++++++++++++sssss--sss+++++++++++++++++++++++++++++++ssss++++
(PID.TID 0000.0001) //     46 +++s+++++++++++sssssss+++s++ss---ss-------ssss++++++++++++++++++++++++++++++++++++++++++++ssss--ss++++++s++++++++++++++++++++++++++s++++++
(PID.TID 0000.0001) //     45 +++++sss++++++++++s++sssssss--------------sss+++++++++++++++++++++++++++++++++++++++++++++ssssssss+++++s+++++++++++++++++++++++++++++sss++
(PID.TID 0000.0001) //     44 ++sssss+++++++++++ss++s-ssssss+s----------sss++++++++++++++++++++++++++++++++++++++++++++++++sssss++++++++++++++++++++++++++++++++sssss+++
(PID.TID 0000.0001) //     43 ++ssss++ss+++++++ssss++sssssss+++s--------+ss++++++++++++++++++++++++++++++++++++++++++++++++ssss+++++++++++++++++++++++++++++++++ssss++ss
(PID.TID 0000.0001) //     42 +s++++sssss+++++++ssss+++ssss++++++sssss--sss+s+++++++++++++++++++++++++++++++++++++++++++++++sss++++++++++++++++++++++++++++++++s++++ssss
(PID.TID 0000.0001) //     41 ++++++sssssssss++++sss+++++++++ss+ss++sssss++++++++++++++++++++++++++++++++++++++++++++++++++++sss++++++++++++++++++++++++++++++++++++ssss
(PID.TID 0000.0001) //     40 ++++++sssssssss++s+sss++++++++++++++++ssss++++++++++++++++++++++++++++++++++++++++++++++++++++++ss++++++++++++++++++++++++++++++++++++ssss
(PID.TID 0000.0001) //     39 ++++++ssss++sss++s++ssss+++++++ss+++++++ss++++++++++++++++++++++++++++++++++++++++++++++++++++++sss+++++++++++++++++++++++++++++++++++ssss
(PID.TID 0000.0001) //     38 ++++++++s+++sssssss+sss+++++++++s+++++++++++++++++++++++++++++++++++++++++++++++++++++++++++++++++++ss++++++++++++++++++++++++++++++++++s+
(PID.TID 0000.0001) //     37 +++++++s++++ssssssss++++++++++++s+++++++++++++++++++++++++++++++++++++++++++++++++++++++++++++++++++++s++++++++++++++++++++++++++++++++s++
(PID.TID 0000.0001) //     36 +ss++++sss++sss++s-ssss+++++++++++++++++++++++++++++++++++++++++++++++++++++++++++++++++++++++++++++++++++++s++++++++++++++++++++ss++++sss
(PID.TID 0000.0001) //     35 ++++++++ssssssss+sssss++++++++++++++++++++++++++++++++++++++++++++++++++++++++++++++++++++++++++++++++++++ss+s++++++++++++++++++++++++++ss
(PID.TID 0000.0001) //     34 +++++++++sssssssssss+++++++++++++++++++s++++++s+++++++++++++++++++++++++++++++++++++++++++++++++++++++++++s++sss+++++++++++++++++++++++++s
(PID.TID 0000.0001) //     33 +++++++++ss+++sssss++++++++++++++++++++++++++ss++++++++++++++++++++++++++++++++++++++++++++++++++++++++++ss++++++++++++++++++++++++++++++s
(PID.TID 0000.0001) //     32 +++++++++ss++sss+ss+++++++++++++++++++++++++++++++++++++++++++++++++++++++++++++++++++++++++++++++++++++ss+++++++++++++++++++++++++++++++s
(PID.TID 0000.0001) //     31 ++++++++++sssssssss++++++++++++++++++++++++++++++++++sss++++++++++++++++++++++++++++++++++++++++++++++++ss++++++++++++++++++++++++++++++++
(PID.TID 0000.0001) //     30 ++++++++++sssssssss+++++++++++++++++++++++++++++++++++++s++++++++++++++++++++++++++++++++++++++++++++++++s++++++++++++s+++++++++++++++++++
(PID.TID 0000.0001) //     29 ++++++++++sssssssss++++++++++++++++++++++++++++++++++++++++++++++++++++++++++++++++++++++++++++++++++++++-s+++++++++sss+++++++++++++++++++
(PID.TID 0000.0001) //     28 ++++++++++sssssssss++++++++++++++++++++++++++++++++++++++++++++++++++++++++++++++++++++++++++++++++++++++s-s++++++++sss+++++++++++++++++++
(PID.TID 0000.0001) //     27 +++++++++ssssssssss+++s+++++++++++++++++++++++++++++++++++++++++++++++++++++++++++++++++++++++++++++++++++s--s+++s+ssss++++++++++++++++++s
(PID.TID 0000.0001) //     26 +++++++++ssssssss++++s++++++++++++++++++++++++++++++++++s+++++++++++++++++++++++++++++++++++++++++++++++++++--s+++ssss+++++++++++++++++++s
(PID.TID 0000.0001) //     25 ++++++++++sssssss++++s+++++++++++++++++++++++++++++ss+++++++++++++++++++++++++++++++++++++++++++++++++++++++--s++++sss++++++++++++++++++++
(PID.TID 0000.0001) //     24 ++++++++++ssssss+++++s++++++++++++++++++++++++sss+sss+++++++++++++++++++++++++++++++++++++++++++++++++++++++--++++ss++++++++++++++++++++++
(PID.TID 0000.0001) //     23 ++++++++++ssssss+++++++++++++++++++++++++++++++sssss++++++++++++++++++++++++++++++++++++++++++++++++++++++++--++++ss++++++++++++++++++++++
(PID.TID 0000.0001) //     22 +++++++++++sssss+++++++++++++++++++++++++++++++ss+++++++++s+++++++++++++++++++++++++++++++++++++++++++++++++-s++++++++++++++++++++++++++++
(PID.TID 0000.0001) //     21 ++++++++++++sss+++++++++++++++++++++++++++++++++++++++++++s++++++++++++++++++++++++++++++++++++++++++++++++sss++++++++++++++++++++++++++++
(PID.TID 0000.0001) //     20 +++++++++++++++++++++++++++++++++++++++++++++++++++++++++s+++++++++++++++++++++++++++++++++++++++++++++++++ss+++++++++++++++++++++++++++++
(PID.TID 0000.0001) //     19 +++++++++++++++++++++++++++++++++++++++++++++++++++++++++++++++++++++++++++++++++++++++++++++++++++++++++++ss+++++++++++++++++++++++++++++
(PID.TID 0000.0001) //     18 +++++++++++++++++++++++++++++++++++++++++++++++++++++++++++++++++++++++++++++++++++++++++++++++++++++++++++ss+++++++++++++++++++++++++++++
(PID.TID 0000.0001) //     17 +++++++++++++++++++++++++++++++++++++++++++++++++++++++++++++++++++++++++++++++++++++++++++++++++++++++++++ss+++++++++++++++++++++++++++++
(PID.TID 0000.0001) //     16 +++++++++++++++++++++++++++++++++++++++++++++++++++++++++++++++++++++++++++++++++++++++++++++++++++++++++++ss+++++++++++++++++++++++++++++
(PID.TID 0000.0001) //     15 ++++++++++++++++++++++++++++++++++++++++++++++++++++++++++++++++++++++++++++++++++++++++++++++++++++++++++ss++++++++++++++++++++++++++++++
(PID.TID 0000.0001) //     14 ++++++++++++++++++++++++++++++++++++++++++++++++++++++++++++++++++++++++++++++++++++++++++++++++++++++++++++++++++++++++++++++++++++++++++
(PID.TID 0000.0001) //     13 ++++++++++++++++++++++++++++++++++++++++++++++++++++++++++++++++++++++++++++++++++++++++++++++++++++++++++++++++++++++++++++++++++++++++++
(PID.TID 0000.0001) //     12 ++++++++++++++++++++++++++++++++++++++++++++++++++++++++++++++++++++++++++++++++++++++++++++++++++++++++++++++++++++++++++++++++++++++++++
(PID.TID 0000.0001) //     11 ++++++++++++++++++++++++++++++++++++++++++++++++++++++++++++++++++++++++++++++++++++++++++++++++++++++++++++++++++++++++++++++++++++++++++
(PID.TID 0000.0001) //     10 ++++++++++++++++++++++++++++++++++++++++++++++++++++++++++++++++++++++++++++++++++++++++++++++++++++++++++++++++++++++++++++++++++++++++++
(PID.TID 0000.0001) //      9 +++++++++++++++++++++++++++++++++++++++++s++++++++++++++++++++++++++++++++++++++++++++++++++++++++++++++++++++++++++++++++++++++++++++++++
(PID.TID 0000.0001) //      8 ++++++++++++++++++++ssss-ssss++++ssss-------ssssssss---sssss+++++++++++++++++++++++++++++++++++++++++++++++++s++++++++++++++++++++++++++++
(PID.TID 0000.0001) //      7 ++sssssssssssssssss--------sssss--------------------------sssssss+++++++++++++++++++++++++++++++++++++++++++sss+++++++++++++++++++ssssssss
(PID.TID 0000.0001) //      6 s-------------------------ssss------------------------------ssss++++++++++++++++++++++++++++++++++sssssssssssss++++++++++++++ssss---------
(PID.TID 0000.0001) //      5 -------------------------------------------------------------ss++++++++++++++++++sssssssssssssssssssssss++++++++++++++++++ssss------------
(PID.TID 0000.0001) //      4 ----------------------------------------------------------ssss++++++++++++++++++++sssssssssssssss---sssss+++++++++++++++++ssss------------
(PID.TID 0000.0001) //      3 ------------------------------------------------------------ssssss++++++++++++++++ssssssssssssss----sssssssss+++sssssssssssss-------------
(PID.TID 0000.0001) //      2 -----------------------------------------------------------------------sssssssssssssssssssssssssssssssssssssssssssssssss------------------
(PID.TID 0000.0001) //      1 ------------------------------------------------------------------------------------------------------------------------------------------
(PID.TID 0000.0001) //      0 ..........................................................................................................................................
(PID.TID 0000.0001) //     -1 ..........................................................................................................................................
(PID.TID 0000.0001) //     -2 ..........................................................................................................................................
(PID.TID 0000.0001) //     -3 ..........................................................................................................................................
(PID.TID 0000.0001) //     -4 ..........................................................................................................................................
(PID.TID 0000.0001) // =======================================================
(PID.TID 0000.0001) // END OF FIELD                                          =
(PID.TID 0000.0001) // =======================================================
(PID.TID 0000.0001) 
(PID.TID 0000.0001) // =======================================================
(PID.TID 0000.0001) // Field hFacC at iteration          1
(PID.TID 0000.0001) // CMIN =          1.000000000000000E+00
(PID.TID 0000.0001) // CMAX =          1.000000000000000E+00
(PID.TID 0000.0001) // CINT =          0.000000000000000E+00
(PID.TID 0000.0001) // SYMBOLS (CMIN->CMAX): -abcdefghijklmnopqrstuvwxyz+
(PID.TID 0000.0001) //                  0.0: .
(PID.TID 0000.0001) // RANGE I (Lo:Hi:Step):(  -4: 133:   1)
(PID.TID 0000.0001) // RANGE J (Lo:Hi:Step):(  69:  -4:  -1)
(PID.TID 0000.0001) // RANGE K (Lo:Hi:Step):(   1:   1:   1)
(PID.TID 0000.0001) // =======================================================
(PID.TID 0000.0001) K =   1
(PID.TID 0000.0001) //                I=5       I=15      I=25      I=35      I=45      I=55      I=65      I=75      I=85      I=95      I=105     I=115     I=125
(PID.TID 0000.0001) // |--J--|****01234|678901234|678901234|678901234|678901234|678901234|678901234|678901234|678901234|678901234|678901234|678901234|678901234|67890123
(PID.TID 0000.0001) //     69 ..........................................................................................................................................
(PID.TID 0000.0001) //     68 ..........................................................................................................................................
(PID.TID 0000.0001) //     67 ..........................................................................................................................................
(PID.TID 0000.0001) //     66 ..........................................................................................................................................
(PID.TID 0000.0001) //     65 ..........................................................................................................................................
(PID.TID 0000.0001) //     64 ------------------------------------------------------------------------------------------------------------------------------------------
(PID.TID 0000.0001) //     63 ------------------------------------------------------------------------------------------------------------------------------------------
(PID.TID 0000.0001) //     62 ---------------------------------------------------------------------------------------------------------..-------------.-----------------
(PID.TID 0000.0001) //     61 -----------------------------------------------------------------------------------------------------.......--................------------
(PID.TID 0000.0001) //     60 -------------------------------------------------------------------------------------------------------..---.................-------------
(PID.TID 0000.0001) //     59 -----------------------------------------------------------------------------------------------------------------.............------------
(PID.TID 0000.0001) //     58 ------------------------------------------------------------------------------------------------------------------..........--------------
(PID.TID 0000.0001) //     57 -----------..------------------------....---------..-..------------.--------........-------------------------------........---------------
(PID.TID 0000.0001) //     56 ----------..--------------------------.......-----........---.....------------..--.....----------------------------.....------------------
(PID.TID 0000.0001) //     55 --------...---------------------------....----------............--.-----------...........--------------------------...------------------..
(PID.TID 0000.0001) //     54 -------..-----------------------------.--......--.---.......------------------.--.........-----.---------------------------------------..-
(PID.TID 0000.0001) //     53 ------------------------------------------.............------------------------------........-..------------------------------------------
(PID.TID 0000.0001) //     52 ------------------------------------.................--------.-------------------------.........-----------....---------------------------
(PID.TID 0000.0001) //     51 -----------------------------------...............-...----------------------------------.........----------....---------------------------
(PID.TID 0000.0001) //     50 ---------....----------------....................-----.----------------------------------.........---------------------------------------.
(PID.TID 0000.0001) //     49 ------.....--..---------------...................----.-----------------------------------.........------------------------------------....
(PID.TID 0000.0001) //     48 -----.-----...-----...-------...................--..-------------------------------------..........----------------------------------.----
(PID.TID 0000.0001) //     47 --....------.---......-------...................-..--------------------------------------..........-------------------------------....----
(PID.TID 0000.0001) //     46 ---.-----------.......---.--..................--------------------------------------------........------.--------------------------.------
(PID.TID 0000.0001) //     45 -----...----------.--........................---------------------------------------------........-----.-----------------------------...--
(PID.TID 0000.0001) //     44 --.....-----------..--........-..............------------------------------------------------.....--------------------------------.....---
(PID.TID 0000.0001) //     43 --....--..-------....--.......---.........-..------------------------------------------------....---------------------------------....--..
(PID.TID 0000.0001) //     42 -.----.....-------....---....------..........-.-----------------------------------------------...--------------------------------.----....
(PID.TID 0000.0001) //     41 ------.........----...---------..-..--.....----------------------------------------------------...------------------------------------....
(PID.TID 0000.0001) //     40 ------.........--.-...----------------....------------------------------------------------------..------------------------------------....
(PID.TID 0000.0001) //     39 ------....--...--.--....-------..-------..------------------------------------------------------...-----------------------------------....
(PID.TID 0000.0001) //     38 --------.---.......-...---------.-------------------------------------------------------------------..----------------------------------.-
(PID.TID 0000.0001) //     37 -------.----........------------.---------------------------------------------------------------------.--------------------------------.--
(PID.TID 0000.0001) //     36 -..----...--...--......-------------------------------------------------------------------------------------.--------------------..----...
(PID.TID 0000.0001) //     35 --------........-.....------------------------------------------------------------------------------------..-.--------------------------..
(PID.TID 0000.0001) //     34 ---------...........-------------------.------.-----------------------------------------------------------.--...-------------------------.
(PID.TID 0000.0001) //     33 ---------..---.....--------------------------..----------------------------------------------------------..------------------------------.
(PID.TID 0000.0001) //     32 ---------..--...-..-------------------------------------------------------------------------------------..-------------------------------.
(PID.TID 0000.0001) //     31 ----------.........----------------------------------...------------------------------------------------..--------------------------------
(PID.TID 0000.0001) //     30 ----------.........-------------------------------------.------------------------------------------------.------------.-------------------
(PID.TID 0000.0001) //     29 ----------.........--------------------------------------------------------------------------------------..---------...-------------------
(PID.TID 0000.0001) //     28 ----------.........--------------------------------------------------------------------------------------...--------...-------------------
(PID.TID 0000.0001) //     27 ---------..........---.-----------------------------------------------------------------------------------....---.-....------------------.
(PID.TID 0000.0001) //     26 ---------........----.----------------------------------.---------------------------------------------------...---....-------------------.
(PID.TID 0000.0001) //     25 ----------.......----.-----------------------------..-------------------------------------------------------...----...--------------------
(PID.TID 0000.0001) //     24 ----------......-----.------------------------...-...-------------------------------------------------------..----..----------------------
(PID.TID 0000.0001) //     23 ----------......-------------------------------.....--------------------------------------------------------..----..----------------------
(PID.TID 0000.0001) //     22 -----------.....-------------------------------..---------.-------------------------------------------------..----------------------------
(PID.TID 0000.0001) //     21 ------------...-------------------------------------------.------------------------------------------------...----------------------------
(PID.TID 0000.0001) //     20 ---------------------------------------------------------.-------------------------------------------------..-----------------------------
(PID.TID 0000.0001) //     19 -----------------------------------------------------------------------------------------------------------..-----------------------------
(PID.TID 0000.0001) //     18 -----------------------------------------------------------------------------------------------------------..-----------------------------
(PID.TID 0000.0001) //     17 -----------------------------------------------------------------------------------------------------------..-----------------------------
(PID.TID 0000.0001) //     16 -----------------------------------------------------------------------------------------------------------..-----------------------------
(PID.TID 0000.0001) //     15 ----------------------------------------------------------------------------------------------------------..------------------------------
(PID.TID 0000.0001) //     14 ------------------------------------------------------------------------------------------------------------------------------------------
(PID.TID 0000.0001) //     13 ------------------------------------------------------------------------------------------------------------------------------------------
(PID.TID 0000.0001) //     12 ------------------------------------------------------------------------------------------------------------------------------------------
(PID.TID 0000.0001) //     11 ------------------------------------------------------------------------------------------------------------------------------------------
(PID.TID 0000.0001) //     10 ------------------------------------------------------------------------------------------------------------------------------------------
(PID.TID 0000.0001) //      9 -----------------------------------------.------------------------------------------------------------------------------------------------
(PID.TID 0000.0001) //      8 --------------------.........----...........................-------------------------------------------------.----------------------------
(PID.TID 0000.0001) //      7 --...............................................................-------------------------------------------...-------------------........
(PID.TID 0000.0001) //      6 ................................................................----------------------------------.............--------------.............
(PID.TID 0000.0001) //      5 ...............................................................------------------.......................------------------................
(PID.TID 0000.0001) //      4 ..............................................................--------------------.......................-----------------................
(PID.TID 0000.0001) //      3 ..................................................................----------------...........................---..........................
(PID.TID 0000.0001) //      2 ..........................................................................................................................................
(PID.TID 0000.0001) //      1 ..........................................................................................................................................
(PID.TID 0000.0001) //      0 ..........................................................................................................................................
(PID.TID 0000.0001) //     -1 ..........................................................................................................................................
(PID.TID 0000.0001) //     -2 ..........................................................................................................................................
(PID.TID 0000.0001) //     -3 ..........................................................................................................................................
(PID.TID 0000.0001) //     -4 ..........................................................................................................................................
(PID.TID 0000.0001) // =======================================================
(PID.TID 0000.0001) // END OF FIELD                                          =
(PID.TID 0000.0001) // =======================================================
(PID.TID 0000.0001) 
(PID.TID 0000.0001) // =======================================================
(PID.TID 0000.0001) // Field hFacW at iteration          1
(PID.TID 0000.0001) // CMIN =          1.000000000000000E+00
(PID.TID 0000.0001) // CMAX =          1.000000000000000E+00
(PID.TID 0000.0001) // CINT =          0.000000000000000E+00
(PID.TID 0000.0001) // SYMBOLS (CMIN->CMAX): -abcdefghijklmnopqrstuvwxyz+
(PID.TID 0000.0001) //                  0.0: .
(PID.TID 0000.0001) // RANGE I (Lo:Hi:Step):(  -4: 133:   1)
(PID.TID 0000.0001) // RANGE J (Lo:Hi:Step):(  69:  -4:  -1)
(PID.TID 0000.0001) // RANGE K (Lo:Hi:Step):(   1:   1:   1)
(PID.TID 0000.0001) // =======================================================
(PID.TID 0000.0001) K =   1
(PID.TID 0000.0001) //                I=5       I=15      I=25      I=35      I=45      I=55      I=65      I=75      I=85      I=95      I=105     I=115     I=125
(PID.TID 0000.0001) // |--J--|****01234|678901234|678901234|678901234|678901234|678901234|678901234|678901234|678901234|678901234|678901234|678901234|678901234|67890123
(PID.TID 0000.0001) //     69 ................................................................-----------------........................-----------------................
(PID.TID 0000.0001) //     68 ...............................................................-------------------........................----------------................
(PID.TID 0000.0001) //     67 ...................................................................---------------............................--..........................
(PID.TID 0000.0001) //     66 ..........................................................................................................................................
(PID.TID 0000.0001) //     65 ..........................................................................................................................................
(PID.TID 0000.0001) //     64 ------------------------------------------------------------------------------------------------------------------------------------------
(PID.TID 0000.0001) //     63 ------------------------------------------------------------------------------------------------------------------------------------------
(PID.TID 0000.0001) //     62 ---------------------------------------------------------------------------------------------------------...------------..----------------
(PID.TID 0000.0001) //     61 -----------------------------------------------------------------------------------------------------........-.................-----------
(PID.TID 0000.0001) //     60 -------------------------------------------------------------------------------------------------------...--..................------------
(PID.TID 0000.0001) //     59 -----------------------------------------------------------------------------------------------------------------..............-----------
(PID.TID 0000.0001) //     58 ------------------------------------------------------------------------------------------------------------------...........-------------
(PID.TID 0000.0001) //     57 -----------...-----------------------.....--------......-----------..-------.........------------------------------.........--------------
(PID.TID 0000.0001) //     56 ----------...-------------------------........----.........--......-----------...-......---------------------------......-----------------
(PID.TID 0000.0001) //     55 --------....--------------------------.....---------.............-..----------............-------------------------....-----------------..
(PID.TID 0000.0001) //     54 -------...----------------------------..-.......-..--........-----------------..-..........----..--------------------------------------...
(PID.TID 0000.0001) //     53 ------------------------------------------..............-----------------------------............-----------------------------------------
(PID.TID 0000.0001) //     52 ------------------------------------..................-------..------------------------..........----------.....--------------------------
(PID.TID 0000.0001) //     51 -----------------------------------....................---------------------------------..........---------.....--------------------------
(PID.TID 0000.0001) //     50 ---------.....---------------.....................----..---------------------------------..........--------------------------------------.
(PID.TID 0000.0001) //     49 ------......-...--------------....................---..----------------------------------..........-----------------------------------....
(PID.TID 0000.0001) //     48 -----..----....----....------....................-...------------------------------------...........---------------------------------..---
(PID.TID 0000.0001) //     47 --.....-----..--.......------.......................-------------------------------------...........------------------------------.....---
(PID.TID 0000.0001) //     46 ---..----------........--..-...................-------------------------------------------.........-----..-------------------------..-----
(PID.TID 0000.0001) //     45 -----....---------..-.........................--------------------------------------------.........----..----------------------------....-
(PID.TID 0000.0001) //     44 --......----------...-........................-----------------------------------------------......-------------------------------......--
(PID.TID 0000.0001) //     43 --.....-...------.....-........--.............-----------------------------------------------.....--------------------------------.....-..
(PID.TID 0000.0001) //     42 -..---......------.....--.....-----.............----------------------------------------------....-------------------------------..---....
(PID.TID 0000.0001) //     41 ------..........---....--------......-......---------------------------------------------------....-----------------------------------....
(PID.TID 0000.0001) //     40 ------..........-......---------------.....-----------------------------------------------------...-----------------------------------....
(PID.TID 0000.0001) //     39 ------.....-....-..-.....------...------...-----------------------------------------------------....----------------------------------....
(PID.TID 0000.0001) //     38 --------..--............--------..------------------------------------------------------------------...---------------------------------..
(PID.TID 0000.0001) //     37 -------..---.........-----------..--------------------------------------------------------------------..-------------------------------..-
(PID.TID 0000.0001) //     36 -...---....-....-.......------------------------------------------------------------------------------------..-------------------...---...
(PID.TID 0000.0001) //     35 --------...............-----------------------------------------------------------------------------------.....-------------------------..
(PID.TID 0000.0001) //     34 ---------............------------------..-----..----------------------------------------------------------..-....------------------------.
(PID.TID 0000.0001) //     33 ---------...--......-------------------------...---------------------------------------------------------...-----------------------------.
(PID.TID 0000.0001) //     32 ---------...-.......------------------------------------------------------------------------------------...------------------------------.
(PID.TID 0000.0001) //     31 ----------..........---------------------------------....-----------------------------------------------...-------------------------------
(PID.TID 0000.0001) //     30 ----------..........------------------------------------..-----------------------------------------------..-----------..------------------
(PID.TID 0000.0001) //     29 ----------..........-------------------------------------------------------------------------------------...--------....------------------
(PID.TID 0000.0001) //     28 ----------..........-------------------------------------------------------------------------------------....-------....------------------
(PID.TID 0000.0001) //     27 ---------...........--..----------------------------------------------------------------------------------.....--.......-----------------.
(PID.TID 0000.0001) //     26 ---------.........---..---------------------------------..--------------------------------------------------....--.....------------------.
(PID.TID 0000.0001) //     25 ----------........---..----------------------------...------------------------------------------------------....---....-------------------
(PID.TID 0000.0001) //     24 ----------.......----..-----------------------........------------------------------------------------------...---...---------------------
(PID.TID 0000.0001) //     23 ----------.......------------------------------......-------------------------------------------------------...---...---------------------
(PID.TID 0000.0001) //     22 -----------......------------------------------...--------..------------------------------------------------...---------------------------
(PID.TID 0000.0001) //     21 ------------....------------------------------------------..-----------------------------------------------....---------------------------
(PID.TID 0000.0001) //     20 ---------------------------------------------------------..------------------------------------------------...----------------------------
(PID.TID 0000.0001) //     19 -----------------------------------------------------------------------------------------------------------...----------------------------
(PID.TID 0000.0001) //     18 -----------------------------------------------------------------------------------------------------------...----------------------------
(PID.TID 0000.0001) //     17 -----------------------------------------------------------------------------------------------------------...----------------------------
(PID.TID 0000.0001) //     16 -----------------------------------------------------------------------------------------------------------...----------------------------
(PID.TID 0000.0001) //     15 ----------------------------------------------------------------------------------------------------------...-----------------------------
(PID.TID 0000.0001) //     14 ------------------------------------------------------------------------------------------------------------------------------------------
(PID.TID 0000.0001) //     13 ------------------------------------------------------------------------------------------------------------------------------------------
(PID.TID 0000.0001) //     12 ------------------------------------------------------------------------------------------------------------------------------------------
(PID.TID 0000.0001) //     11 ------------------------------------------------------------------------------------------------------------------------------------------
(PID.TID 0000.0001) //     10 ------------------------------------------------------------------------------------------------------------------------------------------
(PID.TID 0000.0001) //      9 -----------------------------------------..-----------------------------------------------------------------------------------------------
(PID.TID 0000.0001) //      8 --------------------..........---............................------------------------------------------------..---------------------------
(PID.TID 0000.0001) //      7 --................................................................------------------------------------------....------------------........
(PID.TID 0000.0001) //      6 .................................................................---------------------------------..............-------------.............
(PID.TID 0000.0001) //      5 ................................................................-----------------........................-----------------................
(PID.TID 0000.0001) //      4 ...............................................................-------------------........................----------------................
(PID.TID 0000.0001) //      3 ...................................................................---------------............................--..........................
(PID.TID 0000.0001) //      2 ..........................................................................................................................................
(PID.TID 0000.0001) //      1 ..........................................................................................................................................
(PID.TID 0000.0001) //      0 ------------------------------------------------------------------------------------------------------------------------------------------
(PID.TID 0000.0001) //     -1 ------------------------------------------------------------------------------------------------------------------------------------------
(PID.TID 0000.0001) //     -2 ---------------------------------------------------------------------------------------------------------...------------..----------------
(PID.TID 0000.0001) //     -3 -----------------------------------------------------------------------------------------------------........-.................-----------
(PID.TID 0000.0001) //     -4 -------------------------------------------------------------------------------------------------------...--..................------------
(PID.TID 0000.0001) // =======================================================
(PID.TID 0000.0001) // END OF FIELD                                          =
(PID.TID 0000.0001) // =======================================================
(PID.TID 0000.0001) 
(PID.TID 0000.0001) // =======================================================
(PID.TID 0000.0001) // Field hFacS at iteration          1
(PID.TID 0000.0001) // CMIN =          1.000000000000000E+00
(PID.TID 0000.0001) // CMAX =          1.000000000000000E+00
(PID.TID 0000.0001) // CINT =          0.000000000000000E+00
(PID.TID 0000.0001) // SYMBOLS (CMIN->CMAX): -abcdefghijklmnopqrstuvwxyz+
(PID.TID 0000.0001) //                  0.0: .
(PID.TID 0000.0001) // RANGE I (Lo:Hi:Step):(  -4: 133:   1)
(PID.TID 0000.0001) // RANGE J (Lo:Hi:Step):(  69:  -4:  -1)
(PID.TID 0000.0001) // RANGE K (Lo:Hi:Step):(   1:   1:   1)
(PID.TID 0000.0001) // =======================================================
(PID.TID 0000.0001) K =   1
(PID.TID 0000.0001) //                I=5       I=15      I=25      I=35      I=45      I=55      I=65      I=75      I=85      I=95      I=105     I=115     I=125
(PID.TID 0000.0001) // |--J--|****01234|678901234|678901234|678901234|678901234|678901234|678901234|678901234|678901234|678901234|678901234|678901234|678901234|67890123
(PID.TID 0000.0001) //     69 ..........................................................................................................................................
(PID.TID 0000.0001) //     68 ..........................................................................................................................................
(PID.TID 0000.0001) //     67 ..........................................................................................................................................
(PID.TID 0000.0001) //     66 ..........................................................................................................................................
(PID.TID 0000.0001) //     65 ..........................................................................................................................................
(PID.TID 0000.0001) //     64 ------------------------------------------------------------------------------------------------------------------------------------------
(PID.TID 0000.0001) //     63 ---------------------------------------------------------------------------------------------------------..-------------.-----------------
(PID.TID 0000.0001) //     62 -----------------------------------------------------------------------------------------------------.......--................------------
(PID.TID 0000.0001) //     61 -----------------------------------------------------------------------------------------------------.........................------------
(PID.TID 0000.0001) //     60 -------------------------------------------------------------------------------------------------------..---..................------------
(PID.TID 0000.0001) //     59 -----------------------------------------------------------------------------------------------------------------.............------------
(PID.TID 0000.0001) //     58 -----------..------------------------....---------..-..------------.--------........------------------------------..........--------------
(PID.TID 0000.0001) //     57 ----------...------------------------........-----........---.....-.--------...........----------------------------........---------------
(PID.TID 0000.0001) //     56 --------....--------------------------.......-----.................-----------...........--------------------------.....----------------..
(PID.TID 0000.0001) //     55 -------....---------------------------.........--.--............--.-----------............-----.-------------------...-----------------...
(PID.TID 0000.0001) //     54 -------..-----------------------------.--...................------------------.--............-..---------------------------------------..-
(PID.TID 0000.0001) //     53 ------------------------------------...................------.-----------------------...........-----------....---------------------------
(PID.TID 0000.0001) //     52 -----------------------------------...................-------.-------------------------..........----------....---------------------------
(PID.TID 0000.0001) //     51 ---------....----------------.....................-....---------------------------------..........---------....--------------------------.
(PID.TID 0000.0001) //     50 ------.........--------------....................----..----------------------------------.........------------------------------------....
(PID.TID 0000.0001) //     49 -----..........----...-------....................-..-.-----------------------------------..........----------------------------------.....
(PID.TID 0000.0001) //     48 --....-----...--......-------...................-...-------------------------------------..........-------------------------------....----
(PID.TID 0000.0001) //     47 --....------.--.......---.--....................-..--------------------------------------..........-----.-------------------------....----
(PID.TID 0000.0001) //     46 ---.-...-------...............................--------------------------------------------........-----..--------------------------.-...--
(PID.TID 0000.0001) //     45 --......----------..-........................---------------------------------------------........-----.--------------------------......--
(PID.TID 0000.0001) //     44 --.....-..-------....-........-..............------------------------------------------------.....--------------------------------.....-..
(PID.TID 0000.0001) //     43 -..........------.....-.......---............-.----------------------------------------------....--------------------------------.........
(PID.TID 0000.0001) //     42 -.----.........---....---....--..-...........-.-----------------------------------------------....-------------------------------.----....
(PID.TID 0000.0001) //     41 ------.........--.-...---------..-..--.....----------------------------------------------------...------------------------------------....
(PID.TID 0000.0001) //     40 ------.........--.-.....-------..-----....------------------------------------------------------...-----------------------------------....
(PID.TID 0000.0001) //     39 ------....--.......-....-------..-------..------------------------------------------------------...-..--------------------------------....
(PID.TID 0000.0001) //     38 -------..---...........---------.-------------------------------------------------------------------...--------------------------------..-
(PID.TID 0000.0001) //     37 -..----...--...........---------.---------------------------------------------------------------------.-----.--------------------..----...
(PID.TID 0000.0001) //     36 -..----.........-......-----------------------------------------------------------------------------------....-------------------..----...
(PID.TID 0000.0001) //     35 --------..............-----------------.------.-----------------------------------------------------------..-...------------------------..
(PID.TID 0000.0001) //     34 ---------...........-------------------.-----..----------------------------------------------------------..--...-------------------------.
(PID.TID 0000.0001) //     33 ---------..--......--------------------------..---------------------------------------------------------...------------------------------.
(PID.TID 0000.0001) //     32 ---------..........----------------------------------...------------------------------------------------..-------------------------------.
(PID.TID 0000.0001) //     31 ----------.........----------------------------------....-----------------------------------------------..------------.-------------------
(PID.TID 0000.0001) //     30 ----------.........-------------------------------------.------------------------------------------------..---------...-------------------
(PID.TID 0000.0001) //     29 ----------.........--------------------------------------------------------------------------------------...--------...-------------------
(PID.TID 0000.0001) //     28 ---------..........---.----------------------------------------------------------------------------------.....---.-....------------------.
(PID.TID 0000.0001) //     27 ---------..........--..---------------------------------.-------------------------------------------------.....--......------------------.
(PID.TID 0000.0001) //     26 ---------........----.-----------------------------..---.---------------------------------------------------...---....-------------------.
(PID.TID 0000.0001) //     25 ----------.......----.------------------------...-...-------------------------------------------------------...---....--------------------
(PID.TID 0000.0001) //     24 ----------......-----.------------------------.......-------------------------------------------------------..----..----------------------
(PID.TID 0000.0001) //     23 ----------......-------------------------------.....------.-------------------------------------------------..----..----------------------
(PID.TID 0000.0001) //     22 -----------.....-------------------------------..---------.------------------------------------------------...----------------------------
(PID.TID 0000.0001) //     21 ------------...------------------------------------------..------------------------------------------------...----------------------------
(PID.TID 0000.0001) //     20 ---------------------------------------------------------.-------------------------------------------------..-----------------------------
(PID.TID 0000.0001) //     19 -----------------------------------------------------------------------------------------------------------..-----------------------------
(PID.TID 0000.0001) //     18 -----------------------------------------------------------------------------------------------------------..-----------------------------
(PID.TID 0000.0001) //     17 -----------------------------------------------------------------------------------------------------------..-----------------------------
(PID.TID 0000.0001) //     16 ----------------------------------------------------------------------------------------------------------...-----------------------------
(PID.TID 0000.0001) //     15 ----------------------------------------------------------------------------------------------------------..------------------------------
(PID.TID 0000.0001) //     14 ------------------------------------------------------------------------------------------------------------------------------------------
(PID.TID 0000.0001) //     13 ------------------------------------------------------------------------------------------------------------------------------------------
(PID.TID 0000.0001) //     12 ------------------------------------------------------------------------------------------------------------------------------------------
(PID.TID 0000.0001) //     11 ------------------------------------------------------------------------------------------------------------------------------------------
(PID.TID 0000.0001) //     10 -----------------------------------------.------------------------------------------------------------------------------------------------
(PID.TID 0000.0001) //      9 --------------------.........----...........................-------------------------------------------------.----------------------------
(PID.TID 0000.0001) //      8 --...............................................................-------------------------------------------...-------------------........
(PID.TID 0000.0001) //      7 .................................................................---------------------------------.............--------------.............
(PID.TID 0000.0001) //      6 ................................................................-----------------..............................-----------................
(PID.TID 0000.0001) //      5 ...............................................................------------------........................-----------------................
[...]
(PID.TID 0000.0001) %MON dynstat_eta_min              =  -6.8373438844441E+03
(PID.TID 0000.0001) %MON dynstat_eta_mean             =  -8.2385622823758E+02
(PID.TID 0000.0001) %MON dynstat_eta_sd               =   2.2040311957028E+03
(PID.TID 0000.0001) %MON dynstat_uvel_max             =   7.8906144488487E+01
(PID.TID 0000.0001) %MON dynstat_uvel_min             =  -4.4104043034791E+01
(PID.TID 0000.0001) %MON dynstat_uvel_mean            =   7.9166596133583E+00
(PID.TID 0000.0001) %MON dynstat_uvel_sd              =   1.5740544248546E+01
(PID.TID 0000.0001) %MON dynstat_vvel_max             =   4.0027661148748E+01
(PID.TID 0000.0001) %MON dynstat_vvel_min             =  -3.1548117989993E+01
(PID.TID 0000.0001) %MON dynstat_vvel_mean            =  -1.9094059018209E-02
(PID.TID 0000.0001) %MON dynstat_vvel_sd              =   6.6609965856323E+00
(PID.TID 0000.0001) %MON dynstat_wvel_max             =   1.9492436700145E+00
(PID.TID 0000.0001) %MON dynstat_wvel_min             =  -2.0806187267622E+00
(PID.TID 0000.0001) %MON dynstat_wvel_mean            =   3.9963726607220E-04
(PID.TID 0000.0001) %MON dynstat_wvel_sd              =   7.8160742570137E-02
(PID.TID 0000.0001) %MON dynstat_theta_max            =   4.7786554088045E+02
(PID.TID 0000.0001) %MON dynstat_theta_min            =   2.4207974706108E+02
(PID.TID 0000.0001) %MON dynstat_theta_mean           =   3.3416374927218E+02
(PID.TID 0000.0001) %MON dynstat_theta_sd             =   6.2225006323400E+01
(PID.TID 0000.0001) %MON dynstat_salt_max             =   1.6139767763333E+01
(PID.TID 0000.0001) %MON dynstat_salt_min             =  -1.3548791713932E-01
(PID.TID 0000.0001) %MON dynstat_salt_mean            =   2.1470956306341E+00
(PID.TID 0000.0001) %MON dynstat_salt_sd              =   3.4955890701434E+00
(PID.TID 0000.0001) %MON advcfl_uvel_max              =   1.6853262389542E-01
(PID.TID 0000.0001) %MON advcfl_vvel_max              =   3.8403617751595E-02
(PID.TID 0000.0001) %MON advcfl_wvel_max              =   6.7590846547971E-02
(PID.TID 0000.0001) %MON advcfl_W_hf_max              =   6.6412793759044E-02
(PID.TID 0000.0001) %MON ke_max                       =   3.1530753512648E+03
(PID.TID 0000.0001) %MON ke_mean                      =   1.7584408318256E+02
(PID.TID 0000.0001) // =======================================================
(PID.TID 0000.0001) // End MONITOR dynamic field statistics
(PID.TID 0000.0001) // =======================================================
 cg2d: Sum(rhs),rhsMax =  -1.67835103720681E+03  7.65064505750427E+02
(PID.TID 0000.0001)                    cg2d_init_res =    4.59637753640944E+01
(PID.TID 0000.0001)                       cg2d_iters =   111
(PID.TID 0000.0001)                         cg2d_res =    3.31233634600978E-12
(PID.TID 0000.0001) // =======================================================
(PID.TID 0000.0001) // Begin MONITOR dynamic field statistics
(PID.TID 0000.0001) // =======================================================
(PID.TID 0000.0001) %MON time_tsnumber                =                 25928
(PID.TID 0000.0001) %MON time_secondsf                =   7.7784000000000E+06
(PID.TID 0000.0001) %MON time_secondsi                =               7778400
(PID.TID 0000.0001) %MON dynstat_eta_max              =   2.8859334666454E+03
(PID.TID 0000.0001) %MON dynstat_eta_min              =  -6.8342874935430E+03
(PID.TID 0000.0001) %MON dynstat_eta_mean             =  -8.2402347118649E+02
(PID.TID 0000.0001) %MON dynstat_eta_sd               =   2.2042960086724E+03
(PID.TID 0000.0001) %MON dynstat_uvel_max             =   7.8885333545862E+01
(PID.TID 0000.0001) %MON dynstat_uvel_min             =  -4.4137281819459E+01
(PID.TID 0000.0001) %MON dynstat_uvel_mean            =   7.9171478745745E+00
(PID.TID 0000.0001) %MON dynstat_uvel_sd              =   1.5741025098736E+01
(PID.TID 0000.0001) %MON dynstat_vvel_max             =   3.9984107121002E+01
(PID.TID 0000.0001) %MON dynstat_vvel_min             =  -3.1564830098901E+01
(PID.TID 0000.0001) %MON dynstat_vvel_mean            =  -1.8780330684806E-02
(PID.TID 0000.0001) %MON dynstat_vvel_sd              =   6.6594099253472E+00
(PID.TID 0000.0001) %MON dynstat_wvel_max             =   1.8429131351304E+00
(PID.TID 0000.0001) %MON dynstat_wvel_min             =  -2.1260534915067E+00
(PID.TID 0000.0001) %MON dynstat_wvel_mean            =   3.6159194188059E-04
(PID.TID 0000.0001) %MON dynstat_wvel_sd              =   7.8223224140115E-02
(PID.TID 0000.0001) %MON dynstat_theta_max            =   4.7786827321757E+02
(PID.TID 0000.0001) %MON dynstat_theta_min            =   2.4208463433527E+02
(PID.TID 0000.0001) %MON dynstat_theta_mean           =   3.3416416384336E+02
(PID.TID 0000.0001) %MON dynstat_theta_sd             =   6.2224644884135E+01
(PID.TID 0000.0001) %MON dynstat_salt_max             =   1.6124772590105E+01
(PID.TID 0000.0001) %MON dynstat_salt_min             =  -1.3575066724106E-01
(PID.TID 0000.0001) %MON dynstat_salt_mean            =   2.1472744686277E+00
(PID.TID 0000.0001) %MON dynstat_salt_sd              =   3.4957501081857E+00
(PID.TID 0000.0001) %MON advcfl_uvel_max              =   1.6898951298021E-01
(PID.TID 0000.0001) %MON advcfl_vvel_max              =   3.8361830842615E-02
(PID.TID 0000.0001) %MON advcfl_wvel_max              =   6.9104443452839E-02
(PID.TID 0000.0001) %MON advcfl_W_hf_max              =   6.6082629900985E-02
(PID.TID 0000.0001) %MON ke_max                       =   3.1514640529752E+03
(PID.TID 0000.0001) %MON ke_mean                      =   1.7584512707642E+02
(PID.TID 0000.0001) // =======================================================
(PID.TID 0000.0001) // End MONITOR dynamic field statistics
(PID.TID 0000.0001) // =======================================================
 cg2d: Sum(rhs),rhsMax =  -1.67835103720797E+03  7.65623071842099E+02
(PID.TID 0000.0001)                    cg2d_init_res =    4.31456453880813E+01
(PID.TID 0000.0001)                       cg2d_iters =   111
(PID.TID 0000.0001)                         cg2d_res =    2.92491392354581E-12
(PID.TID 0000.0001) // =======================================================
(PID.TID 0000.0001) // Begin MONITOR dynamic field statistics
(PID.TID 0000.0001) // =======================================================
(PID.TID 0000.0001) %MON time_tsnumber                =                 25929
(PID.TID 0000.0001) %MON time_secondsf                =   7.7787000000000E+06
(PID.TID 0000.0001) %MON time_secondsi                =               7778700
(PID.TID 0000.0001) %MON dynstat_eta_max              =   2.8848659924382E+03
(PID.TID 0000.0001) %MON dynstat_eta_min              =  -6.8309038694882E+03
(PID.TID 0000.0001) %MON dynstat_eta_mean             =  -8.2418733275247E+02
(PID.TID 0000.0001) %MON dynstat_eta_sd               =   2.2045261841114E+03
(PID.TID 0000.0001) %MON dynstat_uvel_max             =   7.8864572055713E+01
(PID.TID 0000.0001) %MON dynstat_uvel_min             =  -4.4168698216055E+01
(PID.TID 0000.0001) %MON dynstat_uvel_mean            =   7.9176335452012E+00
(PID.TID 0000.0001) %MON dynstat_uvel_sd              =   1.5741522356608E+01
(PID.TID 0000.0001) %MON dynstat_vvel_max             =   3.9936435388033E+01
(PID.TID 0000.0001) %MON dynstat_vvel_min             =  -3.1579087651360E+01
(PID.TID 0000.0001) %MON dynstat_vvel_mean            =  -1.8524261135884E-02
(PID.TID 0000.0001) %MON dynstat_vvel_sd              =   6.6578255016862E+00
(PID.TID 0000.0001) %MON dynstat_wvel_max             =   1.7575498236757E+00
(PID.TID 0000.0001) %MON dynstat_wvel_min             =  -2.1752154781914E+00
(PID.TID 0000.0001) %MON dynstat_wvel_mean            =   3.3007382730917E-04
(PID.TID 0000.0001) %MON dynstat_wvel_sd              =   7.8363461545888E-02
(PID.TID 0000.0001) %MON dynstat_theta_max            =   4.7787095445573E+02
(PID.TID 0000.0001) %MON dynstat_theta_min            =   2.4208983387124E+02
(PID.TID 0000.0001) %MON dynstat_theta_mean           =   3.3416459371726E+02
(PID.TID 0000.0001) %MON dynstat_theta_sd             =   6.2224293946131E+01
(PID.TID 0000.0001) %MON dynstat_salt_max             =   1.6109946811562E+01
(PID.TID 0000.0001) %MON dynstat_salt_min             =  -1.3603980577353E-01
(PID.TID 0000.0001) %MON dynstat_salt_mean            =   2.1474457762852E+00
(PID.TID 0000.0001) %MON dynstat_salt_sd              =   3.4958976239792E+00
(PID.TID 0000.0001) %MON advcfl_uvel_max              =   1.6959404950941E-01
(PID.TID 0000.0001) %MON advcfl_vvel_max              =   3.8316093296179E-02
(PID.TID 0000.0001) %MON advcfl_wvel_max              =   7.0485347744339E-02
(PID.TID 0000.0001) %MON advcfl_W_hf_max              =   6.5740124056130E-02
(PID.TID 0000.0001) %MON ke_max                       =   3.1498616463936E+03
(PID.TID 0000.0001) %MON ke_mean                      =   1.7584642576731E+02
(PID.TID 0000.0001) // =======================================================
(PID.TID 0000.0001) // End MONITOR dynamic field statistics
(PID.TID 0000.0001) // =======================================================
 cg2d: Sum(rhs),rhsMax =  -1.67835103720645E+03  7.64505326724838E+02
(PID.TID 0000.0001)                    cg2d_init_res =    4.10805853711239E+01
(PID.TID 0000.0001)                       cg2d_iters =   110
(PID.TID 0000.0001)                         cg2d_res =    4.15544722113056E-12
(PID.TID 0000.0001) // =======================================================
(PID.TID 0000.0001) // Begin MONITOR dynamic field statistics
(PID.TID 0000.0001) // =======================================================
(PID.TID 0000.0001) %MON time_tsnumber                =                 25930
(PID.TID 0000.0001) %MON time_secondsf                =   7.7790000000000E+06
(PID.TID 0000.0001) %MON time_secondsi                =               7779000
(PID.TID 0000.0001) %MON dynstat_eta_max              =   2.8842002382769E+03
(PID.TID 0000.0001) %MON dynstat_eta_min              =  -6.8271727176884E+03
(PID.TID 0000.0001) %MON dynstat_eta_mean             =  -8.2435292213877E+02
(PID.TID 0000.0001) %MON dynstat_eta_sd               =   2.2047466749298E+03
(PID.TID 0000.0001) %MON dynstat_uvel_max             =   7.8843857772489E+01
(PID.TID 0000.0001) %MON dynstat_uvel_min             =  -4.4197987366191E+01
(PID.TID 0000.0001) %MON dynstat_uvel_mean            =   7.9181148444226E+00
(PID.TID 0000.0001) %MON dynstat_uvel_sd              =   1.5742025434230E+01
(PID.TID 0000.0001) %MON dynstat_vvel_max             =   3.9884403078532E+01
(PID.TID 0000.0001) %MON dynstat_vvel_min             =  -3.1590833972093E+01
(PID.TID 0000.0001) %MON dynstat_vvel_mean            =  -1.8332356956509E-02
(PID.TID 0000.0001) %MON dynstat_vvel_sd              =   6.6562454788924E+00
(PID.TID 0000.0001) %MON dynstat_wvel_max             =   1.6858788727204E+00
(PID.TID 0000.0001) %MON dynstat_wvel_min             =  -2.2244890952333E+00
(PID.TID 0000.0001) %MON dynstat_wvel_mean            =   2.9936515778507E-04
(PID.TID 0000.0001) %MON dynstat_wvel_sd              =   7.8522327080800E-02
(PID.TID 0000.0001) %MON dynstat_theta_max            =   4.7787359924813E+02
(PID.TID 0000.0001) %MON dynstat_theta_min            =   2.4209542651562E+02
(PID.TID 0000.0001) %MON dynstat_theta_mean           =   3.3416499902232E+02
(PID.TID 0000.0001) %MON dynstat_theta_sd             =   6.2223967455438E+01
(PID.TID 0000.0001) %MON dynstat_salt_max             =   1.6095280133149E+01
(PID.TID 0000.0001) %MON dynstat_salt_min             =  -1.3634656352276E-01
(PID.TID 0000.0001) %MON dynstat_salt_mean            =   2.1476204636878E+00
(PID.TID 0000.0001) %MON dynstat_salt_sd              =   3.4960568672488E+00
(PID.TID 0000.0001) %MON advcfl_uvel_max              =   1.7017341902084E-01
(PID.TID 0000.0001) %MON advcfl_vvel_max              =   3.8266172095003E-02
(PID.TID 0000.0001) %MON advcfl_wvel_max              =   7.1621699880189E-02
(PID.TID 0000.0001) %MON advcfl_W_hf_max              =   6.5425888759297E-02
(PID.TID 0000.0001) %MON ke_max                       =   3.1482676832730E+03
(PID.TID 0000.0001) %MON ke_mean                      =   1.7584781380304E+02
(PID.TID 0000.0001) // =======================================================
(PID.TID 0000.0001) // End MONITOR dynamic field statistics
(PID.TID 0000.0001) // =======================================================
(PID.TID 0000.0001)  Seconds in section "ALL                [THE_MODEL_MAIN]":
(PID.TID 0000.0001)          User time:   19.45999908447266
(PID.TID 0000.0001)        System time:  0.1899999976158142
(PID.TID 0000.0001)    Wall clock time:   20.34698188304901
(PID.TID 0000.0001)         No. starts:           1
(PID.TID 0000.0001)          No. stops:           1
(PID.TID 0000.0001)  Seconds in section "INITIALISE_FIXED   [THE_MODEL_MAIN]":
(PID.TID 0000.0001)          User time:  0.1999999880790710
(PID.TID 0000.0001)        System time:  1.9999999552965164E-002
(PID.TID 0000.0001)    Wall clock time:  0.2600209712982178
(PID.TID 0000.0001)         No. starts:           1
(PID.TID 0000.0001)          No. stops:           1
(PID.TID 0000.0001)  Seconds in section "THE_MAIN_LOOP      [THE_MODEL_MAIN]":
(PID.TID 0000.0001)          User time:   19.23000031709671
(PID.TID 0000.0001)        System time:  0.1399999968707561
(PID.TID 0000.0001)    Wall clock time:   20.02977502346039
(PID.TID 0000.0001)         No. starts:           1
(PID.TID 0000.0001)          No. stops:           1
(PID.TID 0000.0001)  Seconds in section "INITIALISE_VARIA    [THE_MAIN_LOOP]":
(PID.TID 0000.0001)          User time:  0.1400000154972076
(PID.TID 0000.0001)        System time:  2.9999997466802597E-002
(PID.TID 0000.0001)    Wall clock time:  0.1696439981460571
(PID.TID 0000.0001)         No. starts:           1
(PID.TID 0000.0001)          No. stops:           1
(PID.TID 0000.0001)  Seconds in section "WRITE_STATE         [THE_MAIN_LOOP]":
(PID.TID 0000.0001)          User time:  1.9999980926513672E-002
(PID.TID 0000.0001)        System time:  1.0000001639127731E-002
(PID.TID 0000.0001)    Wall clock time:  2.5027036666870117E-002
(PID.TID 0000.0001)         No. starts:           1
(PID.TID 0000.0001)          No. stops:           1
(PID.TID 0000.0001)  Seconds in section "MONITOR             [THE_MAIN_LOOP]":
(PID.TID 0000.0001)          User time:  3.9999991655349731E-002
(PID.TID 0000.0001)        System time:  0.0000000000000000E+000
(PID.TID 0000.0001)    Wall clock time:  4.0084004402160645E-002
(PID.TID 0000.0001)         No. starts:           1
(PID.TID 0000.0001)          No. stops:           1
(PID.TID 0000.0001)  Seconds in section "MAIN LOOP           [THE_MAIN_LOOP]":
(PID.TID 0000.0001)          User time:   19.03000032901764
(PID.TID 0000.0001)        System time:  9.9999997764825821E-002
(PID.TID 0000.0001)    Wall clock time:   19.79441797733307
(PID.TID 0000.0001)         No. starts:           1
(PID.TID 0000.0001)          No. stops:           1
(PID.TID 0000.0001)  Seconds in section "FORWARD_STEP        [THE_MAIN_LOOP]":
(PID.TID 0000.0001)          User time:   19.03000032901764
(PID.TID 0000.0001)        System time:  9.9999997764825821E-002
(PID.TID 0000.0001)    Wall clock time:   19.79314482212067
(PID.TID 0000.0001)         No. starts:          10
(PID.TID 0000.0001)          No. stops:          10
(PID.TID 0000.0001)  Seconds in section "EXTERNAL_FIELDS_LOAD[THE_MAIN_LOOP]":
(PID.TID 0000.0001)          User time:  0.0000000000000000E+000
(PID.TID 0000.0001)        System time:  0.0000000000000000E+000
(PID.TID 0000.0001)    Wall clock time:  4.2828321456909180E-003
(PID.TID 0000.0001)         No. starts:          10
(PID.TID 0000.0001)          No. stops:          10
(PID.TID 0000.0001)  Seconds in section "DYNAMICS            [THE_MAIN_LOOP]":
(PID.TID 0000.0001)          User time:   9.749999284744263
(PID.TID 0000.0001)        System time:  3.9999987930059433E-002
(PID.TID 0000.0001)    Wall clock time:   10.17417287826538
(PID.TID 0000.0001)         No. starts:          10
(PID.TID 0000.0001)          No. stops:          10
(PID.TID 0000.0001)  Seconds in section "AIM_DO_ATMOS_PHYS      [DYNAMICS]":
(PID.TID 0000.0001)          User time:   3.809999585151672
(PID.TID 0000.0001)        System time:  1.9999995827674866E-002
(PID.TID 0000.0001)    Wall clock time:   3.898761987686157
(PID.TID 0000.0001)         No. starts:          10
(PID.TID 0000.0001)          No. stops:          10
(PID.TID 0000.0001)  Seconds in section "SOLVE_FOR_PRESSURE  [THE_MAIN_LOOP]":
(PID.TID 0000.0001)          User time:   5.589999198913574
(PID.TID 0000.0001)        System time:  3.9999999105930328E-002
(PID.TID 0000.0001)    Wall clock time:   5.817905664443970
(PID.TID 0000.0001)         No. starts:          10
(PID.TID 0000.0001)          No. stops:          10
(PID.TID 0000.0001)  Seconds in section "THE_CORRECTION_STEP [THE_MAIN_LOOP]":
(PID.TID 0000.0001)          User time:   3.170000672340393
(PID.TID 0000.0001)        System time:  0.0000000000000000E+000
(PID.TID 0000.0001)    Wall clock time:   3.261483192443848
(PID.TID 0000.0001)         No. starts:          10
(PID.TID 0000.0001)          No. stops:          10
(PID.TID 0000.0001)  Seconds in section "BLOCKING_EXCHANGES  [THE_MAIN_LOOP]":
(PID.TID 0000.0001)          User time:  4.9998998641967773E-002
(PID.TID 0000.0001)        System time:  0.0000000000000000E+000
(PID.TID 0000.0001)    Wall clock time:  3.6216855049133301E-002
(PID.TID 0000.0001)         No. starts:          10
(PID.TID 0000.0001)          No. stops:          10
(PID.TID 0000.0001)  Seconds in section "DO_THE_MODEL_IO     [THE_MAIN_LOOP]":
(PID.TID 0000.0001)          User time:  2.0000457763671875E-002
(PID.TID 0000.0001)        System time:  1.0000005364418030E-002
(PID.TID 0000.0001)    Wall clock time:  2.9484152793884277E-002
(PID.TID 0000.0001)         No. starts:          10
(PID.TID 0000.0001)          No. stops:          10
(PID.TID 0000.0001)  Seconds in section "WRITE_CHECKPOINT    [THE_MAIN_LOOP]":
(PID.TID 0000.0001)          User time:  0.0000000000000000E+000
(PID.TID 0000.0001)        System time:  0.0000000000000000E+000
(PID.TID 0000.0001)    Wall clock time:  1.1712312698364258E-003
(PID.TID 0000.0001)         No. starts:          10
(PID.TID 0000.0001)          No. stops:          10
(PID.TID 0000.0001)  Seconds in section "WRITE_CHECKPOINT   [THE_MODEL_MAIN]":
(PID.TID 0000.0001)          User time:  2.9998779296875000E-002
(PID.TID 0000.0001)        System time:  3.0000001192092896E-002
(PID.TID 0000.0001)    Wall clock time:  5.6684970855712891E-002
(PID.TID 0000.0001)         No. starts:           1
(PID.TID 0000.0001)          No. stops:           1
(PID.TID 0000.0001) // ======================================================
(PID.TID 0000.0001) // Tile <-> Tile communication statistics
(PID.TID 0000.0001) // ======================================================
(PID.TID 0000.0001) // o Tile number: 000001
(PID.TID 0000.0001) //         No. X exchanges =              0
(PID.TID 0000.0001) //            Max. X spins =              0
(PID.TID 0000.0001) //            Min. X spins =     1000000000
(PID.TID 0000.0001) //          Total. X spins =              0
(PID.TID 0000.0001) //            Avg. X spins =       0.00E+00
(PID.TID 0000.0001) //         No. Y exchanges =              0
(PID.TID 0000.0001) //            Max. Y spins =              0
(PID.TID 0000.0001) //            Min. Y spins =     1000000000
(PID.TID 0000.0001) //          Total. Y spins =              0
(PID.TID 0000.0001) //            Avg. Y spins =       0.00E+00
(PID.TID 0000.0001) // o Thread number: 000001
(PID.TID 0000.0001) //            No. barriers =          16033
(PID.TID 0000.0001) //      Max. barrier spins =              1
(PID.TID 0000.0001) //      Min. barrier spins =              1
(PID.TID 0000.0001) //     Total barrier spins =          16033
(PID.TID 0000.0001) //      Avg. barrier spins =       1.00E+00
