(PID.TID 0000.0001) 
(PID.TID 0000.0001) // ======================================================
(PID.TID 0000.0001) //                      MITgcm UV
(PID.TID 0000.0001) //                      =========
(PID.TID 0000.0001) // ======================================================
(PID.TID 0000.0001) // execution environment starting up...
(PID.TID 0000.0001) // Run starting Wed Apr  1 14:19:48 1998
(PID.TID 0000.0001) // on melville.lcs.mit.edu
(PID.TID 0000.0001) // account cnh
(PID.TID 0000.0001) // MITgcm UV Release: $Name:  $
(PID.TID 0000.0001) 
(PID.TID 0000.0001) // =======================================================
(PID.TID 0000.0001) // Execution Environment parameter file "eedata"
(PID.TID 0000.0001) // =======================================================
(PID.TID 0000.0001) ># Example "eedata" file
(PID.TID 0000.0001) ># Lines beginning "#" are comments
(PID.TID 0000.0001) ># nTx - No. threads per process in X
(PID.TID 0000.0001) ># nTy - No. threads per process in Y
(PID.TID 0000.0001) > &EEPARMS
(PID.TID 0000.0001) > &
(PID.TID 0000.0001) ># Note: Some systems use & as the
(PID.TID 0000.0001) ># namelist terminator. Other systems
(PID.TID 0000.0001) ># use a / character (as shown here).
(PID.TID 0000.0001) 
(PID.TID 0000.0001) // =======================================================
(PID.TID 0000.0001) // Computational Grid Specification ( see files "SIZE.h" )
(PID.TID 0000.0001) //                                  ( and "eedata"       )
(PID.TID 0000.0001) // =======================================================
(PID.TID 0000.0001)      nPx =    1 ; /* No. processes in X */
(PID.TID 0000.0001)      nPy =    1 ; /* No. processes in Y */
(PID.TID 0000.0001)      nSx =    1 ; /* No. tiles in X per process */
(PID.TID 0000.0001)      nSy =    1 ; /* No. tiles in Y per process */
(PID.TID 0000.0001)      sNx =  128 ; /* Tile size in X */
(PID.TID 0000.0001)      sNy =   64 ; /* Tile size in Y */
(PID.TID 0000.0001)      OLx =    3 ; /* Tile overlap distance in X */
(PID.TID 0000.0001)      OLy =    3 ; /* Tile overlap distance in Y */
(PID.TID 0000.0001)      nTx =    1 ; /* No. threads in X per process */
(PID.TID 0000.0001)      nTy =    1 ; /* No. threads in Y per process */
(PID.TID 0000.0001)       Nr =    5 ; /* No. levels in the vertical   */
(PID.TID 0000.0001)       nX =  128 ; /* Total domain size in X ( = nPx*nSx*sNx ) */
(PID.TID 0000.0001)       nY =   64 ; /* Total domain size in Y ( = nPy*nSy*sNy ) */
(PID.TID 0000.0001)   nTiles =    1 ; /* Total no. tiles per process ( = nSx*nSy ) */
(PID.TID 0000.0001)   nProcs =    1 ; /* Total no. processes ( = nPx*nPy ) */
(PID.TID 0000.0001) nThreads =    1 ; /* Total no. threads per process ( = nTx*nTy ) */
(PID.TID 0000.0001) usingMPI =    F ; /* Flag used to control whether MPI is in use */
(PID.TID 0000.0001)                   /*  note: To execute a program with MPI calls */
(PID.TID 0000.0001)                   /*  it must be launched appropriately e.g     */
(PID.TID 0000.0001)                   /*  "mpirun -np 64 ......"                    */
(PID.TID 0000.0001) 
(PID.TID 0000.0001) // ======================================================
(PID.TID 0000.0001) // Mapping of tiles to threads
(PID.TID 0000.0001) // ======================================================
(PID.TID 0000.0001) // -o- Thread   1, tiles (   1:   1,   1:   1)
(PID.TID 0000.0001) 
(PID.TID 0000.0001) // ======================================================
(PID.TID 0000.0001) // Tile <-> Tile connectvity table
(PID.TID 0000.0001) // ======================================================
(PID.TID 0000.0001) // Tile number: 000001 (process no. = 000001)
(PID.TID 0000.0001) //        WEST: Tile = 000001, Process = 000001, Comm = put
(PID.TID 0000.0001) //                bi = 000001, bj = 000001
(PID.TID 0000.0001) //        EAST: Tile = 000001, Process = 000001, Comm = put
(PID.TID 0000.0001) //                bi = 000001, bj = 000001
(PID.TID 0000.0001) //       SOUTH: Tile = 000001, Process = 000001, Comm = put
(PID.TID 0000.0001) //                bi = 000001, bj = 000001
(PID.TID 0000.0001) //       NORTH: Tile = 000001, Process = 000001, Comm = put
(PID.TID 0000.0001) //                bi = 000001, bj = 000001
(PID.TID 0000.0001) 
(PID.TID 0000.0001) // =======================================================
(PID.TID 0000.0001) // Model parameter file "data"
(PID.TID 0000.0001) // =======================================================
(PID.TID 0000.0001) ># ====================
(PID.TID 0000.0001) ># | Model parameters |
(PID.TID 0000.0001) ># ====================
(PID.TID 0000.0001) >#
(PID.TID 0000.0001) ># Continuous equation parameters
(PID.TID 0000.0001) > &PARM01
(PID.TID 0000.0001) > tRef=281.089, 289.321, 307.191, 331.377, 432.413,
(PID.TID 0000.0001) > sRef=5*0.,
(PID.TID 0000.0001) > viscAr=0.E3,
(PID.TID 0000.0001) > viscAh=0.E6,
(PID.TID 0000.0001) > viscA4=0.E17,
(PID.TID 0000.0001) > no_slip_sides=.FALSE.,
(PID.TID 0000.0001) > no_slip_bottom=.FALSE.,
(PID.TID 0000.0001) > diffKhT=0.E3,
(PID.TID 0000.0001) > diffKrT=0.,
(PID.TID 0000.0001) > diffK4T=0.E17,
(PID.TID 0000.0001) > diffKrS=0.E2,
(PID.TID 0000.0001) > diffKhS=0.E3,
(PID.TID 0000.0001) > diffK4S=0.E17,
(PID.TID 0000.0001) > buoyancyRelation='ATMOSPHERIC',
(PID.TID 0000.0001) > eosType='IDEALGAS',
(PID.TID 0000.0001) > Integr_GeoPot=2,
(PID.TID 0000.0001) > gravity=9.81,
(PID.TID 0000.0001) > rhonil=1.0,
(PID.TID 0000.0001) > rhoConst=1.0,
(PID.TID 0000.0001) > rigidLid=.FALSE.,
(PID.TID 0000.0001) > implicitFreeSurface=.TRUE.,
(PID.TID 0000.0001) > exactConserv=.TRUE.,
(PID.TID 0000.0001) >#uniformLin_PhiSurf=.FALSE.,
(PID.TID 0000.0001) > staggerTimeStep=.TRUE.,
(PID.TID 0000.0001) > nonHydrostatic=.FALSE.,
(PID.TID 0000.0001) > readBinaryPrec=64,
(PID.TID 0000.0001) > writeBinaryPrec=64,
(PID.TID 0000.0001) > hFacMin=1.0,
(PID.TID 0000.0001) > saltAdvScheme=3,
(PID.TID 0000.0001) > &
(PID.TID 0000.0001) >
(PID.TID 0000.0001) ># Elliptic solver parameters
(PID.TID 0000.0001) > &PARM02
(PID.TID 0000.0001) > cg2dMaxIters=200,
(PID.TID 0000.0001) >#cg2dTargetResidual=1.E-12,
(PID.TID 0000.0001) > cg2dTargetResWunit=1.E-17,
(PID.TID 0000.0001) > &
(PID.TID 0000.0001) >
(PID.TID 0000.0001) ># Time stepping parameters
(PID.TID 0000.0001) > &PARM03
(PID.TID 0000.0001) > niter0=17280,
(PID.TID 0000.0001) > nTimeSteps=10,
(PID.TID 0000.0001) >#endTime=31104000.,
(PID.TID 0000.0001) > deltaT=450.0,
(PID.TID 0000.0001) > forcing_In_AB=.FALSE.,
(PID.TID 0000.0001) > abEps=0.1,
(PID.TID 0000.0001) > cAdjFreq=0.,
(PID.TID 0000.0001) > pChkptFreq=2592000.0,
(PID.TID 0000.0001) > chkptFreq=0.0,
(PID.TID 0000.0001) > dumpFreq=2592000.0,
(PID.TID 0000.0001) > taveFreq=2592000.0,
(PID.TID 0000.0001) >#monitorFreq=86400.0,
(PID.TID 0000.0001) > monitorFreq=1.0,
(PID.TID 0000.0001) > &
(PID.TID 0000.0001) >
(PID.TID 0000.0001) ># Gridding parameters
(PID.TID 0000.0001) > &PARM04
(PID.TID 0000.0001) > usingCartesianGrid=.FALSE.,
(PID.TID 0000.0001) > usingSphericalPolarGrid=.TRUE.,
(PID.TID 0000.0001) > delX=128*2.8125,
(PID.TID 0000.0001) > delY=64*2.8125,
(PID.TID 0000.0001) > delR=1.E4, 2.5E4, 3.E4, 2.E4, 1.5E4,
(PID.TID 0000.0001) > Ro_SeaLevel=1.E5,
(PID.TID 0000.0001) > groundAtK1=.TRUE.,
(PID.TID 0000.0001) > phiMin=-90.,
(PID.TID 0000.0001) > rSphere=6370.E3,
(PID.TID 0000.0001) > &
(PID.TID 0000.0001) >
(PID.TID 0000.0001) ># Input datasets
(PID.TID 0000.0001) > &PARM05
(PID.TID 0000.0001) > topoFile='topo.filt_55.bin',
(PID.TID 0000.0001) > &
(PID.TID 0000.0001) 
(PID.TID 0000.0001) S/R INI_PARMS ; read PARM01 : OK
(PID.TID 0000.0001) S/R INI_PARMS ; read PARM02 : OK
(PID.TID 0000.0001) S/R INI_PARMS ; read PARM03 : OK
(PID.TID 0000.0001) S/R INI_PARMS ; read PARM04 : OK
(PID.TID 0000.0001) S/R INI_PARMS ; read PARM05 : OK
(PID.TID 0000.0001) %MON XC_max                       =   3.5859375000000E+02
(PID.TID 0000.0001) %MON XC_min                       =   1.4062500000000E+00
(PID.TID 0000.0001) %MON XC_mean                      =   1.8000000000000E+02
(PID.TID 0000.0001) %MON XC_sd                        =   1.0391987692599E+02
(PID.TID 0000.0001) %MON XG_max                       =   3.5718750000000E+02
(PID.TID 0000.0001) %MON XG_min                       =   2.8125000000000E+00
(PID.TID 0000.0001) %MON XG_mean                      =   1.8000000000000E+02
(PID.TID 0000.0001) %MON XG_sd                        =   1.0310795313651E+02
(PID.TID 0000.0001) %MON DXC_max                      =   3.1259246843155E+05
(PID.TID 0000.0001) %MON DXC_min                      =   7.6737143816223E+03
(PID.TID 0000.0001) %MON DXC_mean                     =   1.9908248704234E+05
(PID.TID 0000.0001) %MON DXC_sd                       =   9.6190602240068E+04
(PID.TID 0000.0001) %MON DXF_max                      =   3.1259246843155E+05
(PID.TID 0000.0001) %MON DXF_min                      =   7.6737143816223E+03
(PID.TID 0000.0001) %MON DXF_mean                     =   1.9908248704234E+05
(PID.TID 0000.0001) %MON DXF_sd                       =   9.6190602240068E+04
(PID.TID 0000.0001) %MON DXG_max                      =   3.1268664380261E+05
(PID.TID 0000.0001) %MON DXG_min                      =   1.5342806404640E+04
(PID.TID 0000.0001) %MON DXG_mean                     =   2.0218161485138E+05
(PID.TID 0000.0001) %MON DXG_sd                       =   9.3728538420912E+04
(PID.TID 0000.0001) %MON DXV_max                      =   3.1268664380261E+05
(PID.TID 0000.0001) %MON DXV_min                      =   1.5342806404640E+04
(PID.TID 0000.0001) %MON DXV_mean                     =   2.0218161485138E+05
(PID.TID 0000.0001) %MON DXV_sd                       =   9.3728538420912E+04
(PID.TID 0000.0001) %MON YC_max                       =   8.8593750000000E+01
(PID.TID 0000.0001) %MON YC_min                       =  -8.8593750000000E+01
(PID.TID 0000.0001) %MON YC_mean                      =   0.0000000000000E+00
(PID.TID 0000.0001) %MON YC_sd                        =   5.1955180880375E+01
(PID.TID 0000.0001) %MON YG_max                       =   8.7187500000000E+01
(PID.TID 0000.0001) %MON YG_min                       =  -9.0000000000000E+01
(PID.TID 0000.0001) %MON YG_mean                      =  -1.4285714285714E+00
(PID.TID 0000.0001) %MON YG_sd                        =   5.2365595692639E+01
(PID.TID 0000.0001) %MON DYC_max                      =   3.1268664380261E+05
(PID.TID 0000.0001) %MON DYC_min                      =   3.1268664380261E+05
(PID.TID 0000.0001) %MON DYC_mean                     =   3.1268664380263E+05
(PID.TID 0000.0001) %MON DYC_sd                       =   2.4156179279089E-08
(PID.TID 0000.0001) %MON DYF_max                      =   3.1268664380261E+05
(PID.TID 0000.0001) %MON DYF_min                      =   3.1268664380261E+05
(PID.TID 0000.0001) %MON DYF_mean                     =   3.1268664380263E+05
(PID.TID 0000.0001) %MON DYF_sd                       =   2.4156179279089E-08
(PID.TID 0000.0001) %MON DYG_max                      =   3.1268664380261E+05
(PID.TID 0000.0001) %MON DYG_min                      =   3.1268664380261E+05
(PID.TID 0000.0001) %MON DYG_mean                     =   3.1268664380263E+05
(PID.TID 0000.0001) %MON DYG_sd                       =   2.4156179279089E-08
(PID.TID 0000.0001) %MON DYU_max                      =   3.1268664380261E+05
(PID.TID 0000.0001) %MON DYU_min                      =   3.1268664380261E+05
(PID.TID 0000.0001) %MON DYU_mean                     =   3.1268664380263E+05
(PID.TID 0000.0001) %MON DYU_sd                       =   2.4156179279089E-08
(PID.TID 0000.0001) %MON RA_max                       =   9.7733676797555E+10
(PID.TID 0000.0001) %MON RA_min                       =   2.3992270990191E+09
(PID.TID 0000.0001) %MON RA_mean                      =   6.2244185031957E+10
(PID.TID 0000.0001) %MON RA_sd                        =   3.0074496923945E+10
(PID.TID 0000.0001) %MON RAW_max                      =   9.7733676797555E+10
(PID.TID 0000.0001) %MON RAW_min                      =   2.3992270990191E+09
(PID.TID 0000.0001) %MON RAW_mean                     =   6.2244185031957E+10
(PID.TID 0000.0001) %MON RAW_sd                       =   3.0074496923945E+10
(PID.TID 0000.0001) %MON RAS_max                      =   9.7763121221868E+10
(PID.TID 0000.0001) %MON RAS_min                      =   4.7970089933465E+09
(PID.TID 0000.0001) %MON RAS_mean                     =   6.3213143616158E+10
(PID.TID 0000.0001) %MON RAS_sd                       =   2.9304719741649E+10
(PID.TID 0000.0001) %MON RAZ_max                      =   9.7763121221868E+10
(PID.TID 0000.0001) %MON RAZ_min                      =   4.7970089933465E+09
(PID.TID 0000.0001) %MON RAZ_mean                     =   6.3213143616158E+10
(PID.TID 0000.0001) %MON RAZ_sd                       =   2.9304719741649E+10
(PID.TID 0000.0001)  MDSREADFIELD: opening global file: topo.filt_55.bin
INI_P_GROUND: PhiRef/g [m] at Center (integer) and Interface (half-int.) levels:
  K=  0.5  ;  r=  100000.0  ;  phiRef/g=       0.000
  K=  1.0  ;  r=   95000.0  ;  phiRef/g=     418.526
  K=  1.5  ;  r=   90000.0  ;  phiRef/g=    1219.560
  K=  2.0  ;  r=   77500.0  ;  phiRef/g=    2044.053
  K=  2.5  ;  r=   65000.0  ;  phiRef/g=    3664.142
  K=  3.0  ;  r=   50000.0  ;  phiRef/g=    5384.296
  K=  3.5  ;  r=   35000.0  ;  phiRef/g=    7701.142
  K=  4.0  ;  r=   25000.0  ;  phiRef/g=   10200.400
  K=  4.5  ;  r=   15000.0  ;  phiRef/g=   13521.874
  K=  5.0  ;  r=    7500.0  ;  phiRef/g=   17856.056
  K=  5.5  ;  r=       0.0  ;  phiRef/g=   38969.174
(PID.TID 0000.0001) // =======================================================
(PID.TID 0000.0001) // Field Model R_low (ini_masks_etc) at iteration          1
(PID.TID 0000.0001) // CMIN =          1.000000000000000E+32
(PID.TID 0000.0001) // CMAX =         -1.000000000000000E+32
(PID.TID 0000.0001) // CINT =          0.000000000000000E+00
(PID.TID 0000.0001) // SYMBOLS (CMIN->CMAX): -abcdefghijklmnopqrstuvwxyz+
(PID.TID 0000.0001) //                  0.0: .
(PID.TID 0000.0001) // RANGE I (Lo:Hi:Step):(  -2: 131:   1)
(PID.TID 0000.0001) // RANGE J (Lo:Hi:Step):(  67:  -2:  -1)
(PID.TID 0000.0001) // RANGE K (Lo:Hi:Step):(   1:   1:   1)
(PID.TID 0000.0001) // =======================================================
(PID.TID 0000.0001) K =   1
(PID.TID 0000.0001) //                I=7       I=17      I=27      I=37      I=47      I=57      I=67      I=77      I=87      I=97      I=107     I=117     I=127
(PID.TID 0000.0001) // |--J--|**0123456|890123456|890123456|890123456|890123456|890123456|890123456|890123456|890123456|890123456|890123456|890123456|890123456|8901
(PID.TID 0000.0001) //     67 ......................................................................................................................................
(PID.TID 0000.0001) //     66 ......................................................................................................................................
(PID.TID 0000.0001) //     65 ......................................................................................................................................
(PID.TID 0000.0001) //     64 ......................................................................................................................................
(PID.TID 0000.0001) //     63 ......................................................................................................................................
(PID.TID 0000.0001) //     62 ......................................................................................................................................
(PID.TID 0000.0001) //     61 ......................................................................................................................................
(PID.TID 0000.0001) //     60 ......................................................................................................................................
(PID.TID 0000.0001) //     59 ......................................................................................................................................
(PID.TID 0000.0001) //     58 ......................................................................................................................................
(PID.TID 0000.0001) //     57 ......................................................................................................................................
(PID.TID 0000.0001) //     56 ......................................................................................................................................
(PID.TID 0000.0001) //     55 ......................................................................................................................................
(PID.TID 0000.0001) //     54 ......................................................................................................................................
(PID.TID 0000.0001) //     53 ......................................................................................................................................
(PID.TID 0000.0001) //     52 ......................................................................................................................................
(PID.TID 0000.0001) //     51 ......................................................................................................................................
(PID.TID 0000.0001) //     50 ......................................................................................................................................
(PID.TID 0000.0001) //     49 ......................................................................................................................................
(PID.TID 0000.0001) //     48 ......................................................................................................................................
(PID.TID 0000.0001) //     47 ......................................................................................................................................
(PID.TID 0000.0001) //     46 ......................................................................................................................................
(PID.TID 0000.0001) //     45 ......................................................................................................................................
(PID.TID 0000.0001) //     44 ......................................................................................................................................
(PID.TID 0000.0001) //     43 ......................................................................................................................................
(PID.TID 0000.0001) //     42 ......................................................................................................................................
(PID.TID 0000.0001) //     41 ......................................................................................................................................
(PID.TID 0000.0001) //     40 ......................................................................................................................................
(PID.TID 0000.0001) //     39 ......................................................................................................................................
(PID.TID 0000.0001) //     38 ......................................................................................................................................
(PID.TID 0000.0001) //     37 ......................................................................................................................................
(PID.TID 0000.0001) //     36 ......................................................................................................................................
(PID.TID 0000.0001) //     35 ......................................................................................................................................
(PID.TID 0000.0001) //     34 ......................................................................................................................................
(PID.TID 0000.0001) //     33 ......................................................................................................................................
(PID.TID 0000.0001) //     32 ......................................................................................................................................
(PID.TID 0000.0001) //     31 ......................................................................................................................................
(PID.TID 0000.0001) //     30 ......................................................................................................................................
(PID.TID 0000.0001) //     29 ......................................................................................................................................
(PID.TID 0000.0001) //     28 ......................................................................................................................................
(PID.TID 0000.0001) //     27 ......................................................................................................................................
(PID.TID 0000.0001) //     26 ......................................................................................................................................
(PID.TID 0000.0001) //     25 ......................................................................................................................................
(PID.TID 0000.0001) //     24 ......................................................................................................................................
(PID.TID 0000.0001) //     23 ......................................................................................................................................
(PID.TID 0000.0001) //     22 ......................................................................................................................................
(PID.TID 0000.0001) //     21 ......................................................................................................................................
(PID.TID 0000.0001) //     20 ......................................................................................................................................
(PID.TID 0000.0001) //     19 ......................................................................................................................................
(PID.TID 0000.0001) //     18 ......................................................................................................................................
(PID.TID 0000.0001) //     17 ......................................................................................................................................
(PID.TID 0000.0001) //     16 ......................................................................................................................................
(PID.TID 0000.0001) //     15 ......................................................................................................................................
(PID.TID 0000.0001) //     14 ......................................................................................................................................
(PID.TID 0000.0001) //     13 ......................................................................................................................................
(PID.TID 0000.0001) //     12 ......................................................................................................................................
(PID.TID 0000.0001) //     11 ......................................................................................................................................
(PID.TID 0000.0001) //     10 ......................................................................................................................................
(PID.TID 0000.0001) //      9 ......................................................................................................................................
(PID.TID 0000.0001) //      8 ......................................................................................................................................
(PID.TID 0000.0001) //      7 ......................................................................................................................................
(PID.TID 0000.0001) //      6 ......................................................................................................................................
(PID.TID 0000.0001) //      5 ......................................................................................................................................
(PID.TID 0000.0001) //      4 ......................................................................................................................................
(PID.TID 0000.0001) //      3 ......................................................................................................................................
(PID.TID 0000.0001) //      2 ......................................................................................................................................
(PID.TID 0000.0001) //      1 ......................................................................................................................................
(PID.TID 0000.0001) //      0 ......................................................................................................................................
(PID.TID 0000.0001) //     -1 ......................................................................................................................................
(PID.TID 0000.0001) //     -2 ......................................................................................................................................
(PID.TID 0000.0001) // =======================================================
(PID.TID 0000.0001) // END OF FIELD                                          =
(PID.TID 0000.0001) // =======================================================
(PID.TID 0000.0001) 
(PID.TID 0000.0001) // =======================================================
(PID.TID 0000.0001) // Field Model Ro_surf (ini_masks_etc) at iteration          1
(PID.TID 0000.0001) // CMIN =          3.500000000000000E+04
(PID.TID 0000.0001) // CMAX =          1.000000000000000E+05
(PID.TID 0000.0001) // CINT =          2.407407407407407E+03
(PID.TID 0000.0001) // SYMBOLS (CMIN->CMAX): -abcdefghijklmnopqrstuvwxyz+
(PID.TID 0000.0001) //                  0.0: .
(PID.TID 0000.0001) // RANGE I (Lo:Hi:Step):(  -2: 131:   1)
(PID.TID 0000.0001) // RANGE J (Lo:Hi:Step):(  67:  -2:  -1)
(PID.TID 0000.0001) // RANGE K (Lo:Hi:Step):(   1:   1:   1)
(PID.TID 0000.0001) // =======================================================
(PID.TID 0000.0001) K =   1
(PID.TID 0000.0001) //                I=7       I=17      I=27      I=37      I=47      I=57      I=67      I=77      I=87      I=97      I=107     I=117     I=127
(PID.TID 0000.0001) // |--J--|**0123456|890123456|890123456|890123456|890123456|890123456|890123456|890123456|890123456|890123456|890123456|890123456|890123456|8901
(PID.TID 0000.0001) //     67 ......................................................................................................................................
(PID.TID 0000.0001) //     66 ......................................................................................................................................
(PID.TID 0000.0001) //     65 ......................................................................................................................................
(PID.TID 0000.0001) //     64 ++++++++++++++++++++++++++++++++++++++++++++++++++++++++++++++++++++++++++++++++++++++++++++++++++++++++++++++++++++++++++++++++++++++
(PID.TID 0000.0001) //     63 ++++++++++++++++++++++++++++++++++++++++++++++++++++++++++++++++++++++++++++++++++++++++++++++++++++++++++++++++++++++++++++++++++++++
(PID.TID 0000.0001) //     62 ++++++++++++++++++++++++++++++++++wwwwwwwwwwwwwwwwwwwwwwww++++++++++++++++++++++++++++++++++++++++++++++++++++++++++++++++++++++++++++
(PID.TID 0000.0001) //     61 +++++++++++++++++++++++++++++++++wwwwwwwwwwwwwwwlllllllwwwwww++++++++++wwww+++++++++++++++++++++++++++++++++++++++++++++++++++++++++++
(PID.TID 0000.0001) //     60 ++++++++++++++++++++++++++++++++++++wwwwwwwwwwlllllllllllwww+++++++++++wwww+++++++++++++++++++++++++++++++++++++++++++++++++++++++++++
(PID.TID 0000.0001) //     59 +++++++++++++++++++++++++++++++++++wwww+++++++wwllllllllllww+++++++++++++++++++++++++++ww+++++++++++++++ww++++++++++++++++++++++++++++
(PID.TID 0000.0001) //     58 +++++++++++++++++++++++++++++++++++++wwwww+++++wwllllllllww+++++++++++++++++++++++++++++++++++++++++++++ww++++++++++++++++++++++++++++
(PID.TID 0000.0001) //     57 www++++++wwwwwwwwww++wwww+++++++++++++++wwww++++wwlllllwww++++++++++++++wwww++++++++++++++++++++++wwwwwwwww++++wwwwwww+++++++wwwwww+++
(PID.TID 0000.0001) //     56 wwww++++++wwwwwwwwwwwww++wwww+++++++++++++www+++wwllwww++++www+++++++++www++++++++++++++www++++++++wwwwwwwww+++wwwwwwwwwwwwwwwwwwwww++
(PID.TID 0000.0001) //     55 w++++++++++wwwwwwwwwwwwww+++w+++++++++++++ww+++++wllw++++++++++++++++wwww+++++++++++++++w++++++++++wwwwwwww+++++wwwwwwwwwwwwwwwww+++++
(PID.TID 0000.0001) //     54 ++++++++++wwwwwwllwwwwwwwww+www+++++++++ww++++++++ww+++++++++++++++++www+++++++++++++++++++++++++++wwwwwwwwwwwwww++wwwwwwwwww+++++++++
(PID.TID 0000.0001) //     53 +++++++++++w++++++wwwwwwwwwwwww++++++++++++ww++++++++++++++++++++w++++++++++++++++++++++++++++++++++++wwwwwwwwwwwwwww++++++ww+++++++++
(PID.TID 0000.0001) //     52 ++++++++++++++++++++wwwwwwwwww++++++++++wwwww++++++++++++++++++++++++++++++++++++++++++w++++++++++wwwwwwwwwwwwwwwwww+++++++ww+++++++++
(PID.TID 0000.0001) //     51 +++++++++++++++++++++wwwllwwwwww++++++++wwwwww++++++++++++++++++++++++++w++++++++++++++w+++++w++wwlwwwlwwwwwwwwwwwwww+++++++++++++++++
(PID.TID 0000.0001) //     50 ++++++++++++++++++++++wwwwwwwwww++w+++++www++++++++++++++++++++++++++wwwwwww++++++++++++++wwwwwwwlllwllwwwwwwwwwwwwww+++++++++++++++++
(PID.TID 0000.0001) //     49 +++++++++++++++++++++++wwwllwwwwwww++w+++ww++++++++++++++++++++++++wwllwwwwww+++++++++++++++wwwllwwllllwwwwwwww+wwww++++++++++++++++++
(PID.TID 0000.0001) //     48 +++++++++++++++++++++++wwwlllwwww+++++++ww++++++++++++++++++++++w+www+wwwwww+++++lll+++++++wlllllllwwwwwwwwwww++ww+++w++++++++++++++++
(PID.TID 0000.0001) //     47 +++++++++++++++++++++++wwwllllwww+++++ww++++++++++++++++++++++++www++w++w+wwwwwwwlllw+++++wlllllwwwwwlwwwwwwww+ww+++++++++++++++++++++
(PID.TID 0000.0001) //     46 +++++++++++++++++++++++wllllllwww++++ww+++++++++++++++++++++++++www+++++w+w++wwwwllll+wwwwwllllwllllllllwwww++++w+++w+++++++++++++++++
(PID.TID 0000.0001) //     45 ++++++++++++++++++++++++wwwlllww++++ww+++++++++++++++++++++++++++wwwww+++++++++wwwwlllwwwlllll------lllllwww++++++www+++++++++++++++++
(PID.TID 0000.0001) //     44 +++++++++++++++++++++++++wwwwwww++++++++++++++++++++++++++++++++lwwwww+w+++++++wwwwwllwwwlllwlll-lll--llwww+++++++++++++++++++++++++++
(PID.TID 0000.0001) //     43 ++++++++++++++++++++++++++wwlwww+++++++++++++++++++++++++++++++wwwwwwwwww+++++wwwww++lllwwlw++wl---lllllwwwwww++++++++++++++++++++++++
(PID.TID 0000.0001) //     42 ++++++++++++++++++++++++++w+wlww+++++++++++++++++++++++++++++++ww+++wwwwww+ww+wwwwww+wwwwww++w+++wlwwlllwwwwww++++++++++++++++++++++++
(PID.TID 0000.0001) //     41 +++++++++++++++++++++++++++++llw+++++++++++++++++++++++++++++++++++wwwwwwwwww++wwwww+++w+++++wwwww++wwwwwwwwww++++++++++++++++++++++++
(PID.TID 0000.0001) //     40 +++++++++++++++++++++++++++++wllw++++++++++++++++++++++++++++++++++wwwwwwwwww++wwwww+++++++++wwwww++wwwww+++++++++++++++++++++++++++++
(PID.TID 0000.0001) //     39 ++++++++++++++++++++++++++++++wllww++++++w+++++++++++++++++++++++++wwwwwwwwwwwwww+wwwww++++++ww+w++++wwww+++++++++++++++++++++++++++++
(PID.TID 0000.0001) //     38 +++++++++++++++++++++++++++++++++wwww++++++++++++++++++++++++++++++++ww+++wwwwwww+lww++++++++ww+++++++wwww++++w+++++++++++++++++++++++
(PID.TID 0000.0001) //     37 +++++++++++++++++++++++++++++++++++ww+++++++++++++++++++++++++www++++ww++wwwwwwwlww+++++++++++w++++++++++w++++++++++++++++++++++++++++
(PID.TID 0000.0001) //     36 +++++++++++++++++++++++++++++++++++++ww+wwww++++++++++++++++++www++++wwwwwwwwwwwlwwww+++++++++w+++++++++++++++++++++++++++++++++++++++
(PID.TID 0000.0001) //     35 ++++++++++++++++++++++++++++++++++++++wwwl+www++++++++++++++++++++++++wwwwwwwwwwllww+++++++++++++++++++++++++++w++++++++++++++++++++++
(PID.TID 0000.0001) //     34 +++++++++++++++++++++++++++++++++++++++wlw+www++++++++++++++++++++++++wwwwwwwwwwwww++++++++++++++++++w+w+++ww+++++++++++++++++++++++++
(PID.TID 0000.0001) //     33 +++++++++++++++++++++++++++++++++++++++lw++ww++++++++++++++++++++++++++ww++wwwwww+++++++++++++++++++++w++++ww+w+++++++++++++++++++++++
(PID.TID 0000.0001) //     32 ++++++++++++++++++++++++++++++++++++++wl+++++++++++++++++++++++++++++++ww+wwwwwlw++++++++++++++++++++++++++++ww+++w+++++++++++++++++++
(PID.TID 0000.0001) //     31 ++++++++++++++++++++++++++++++++++++++lw++++++++++++++++++++++++++++++++wwwwwwwww++++++++++++++++++++++w++++++w++++wllw+++++++++++++++
(PID.TID 0000.0001) //     30 ++++++++++++++++++++++++++++++++++++++wl++++++++++++ww++++++++++++++++++wwwwwwwww++++++++++++++++++++++++www+++++++++lww++++++++++++++
(PID.TID 0000.0001) //     29 +++++++++++++++++++++++++++++++++++++++lw+++w++ww+wwww++++++++++++++++++wwwwwwwww++++++++++++++++++++++++++++w+w++++++++++++++++++++++
(PID.TID 0000.0001) //     28 +++++++++++++++++++++++++++++++++++++++wllw+wwwwwwwww+++++++++++++++++++wwwwwwwww+++++++++++++++++++++++++++++++++++++++++++++++++++++
(PID.TID 0000.0001) //     27 ++++++++++++++++++++++++++++++++++++++++lllw+wwwwwwww++++++++++++++++++wwwwwwwwww+++w+++++++++++++++++++++++++++++++++++++++++++++++++
(PID.TID 0000.0001) //     26 +++++++++++++++++++++++++++++++++++++++++wllw++wwwwww++++++++++++++++++wwwwwwww++++ww+++++++++++++++++++++++++++w+++++w+++++++++++++++
(PID.TID 0000.0001) //     25 ++++++++++++++++++++++++++++++++++++++++++llw++wwwwww+++++++++++++++++++wwwwwww++++w++++++++++++++++++++++++ww++www+++w+++++++++++++++
(PID.TID 0000.0001) //     24 ++++++++++++++++++++++++++++++++++++++++++llw++wwww+++++++++++++++++++++wwwwwww++++w++++++++++++++++++++++++wwwwwww++++w++++++++++++++
(PID.TID 0000.0001) //     23 ++++++++++++++++++++++++++++++++++++++++++ll++++ww++++++++++++++++++++++wwwwww++++++++++++++++++++++++++++++wwwwwww++++w++++++++++++++
(PID.TID 0000.0001) //     22 ++++++++++++++++++++++++++++++++++++++++++lw++++ww+++++++++++++++++++++++wwwwl+++++++++++++++++++++++++++++++ww+++++++++w+++++++++++++
(PID.TID 0000.0001) //     21 +++++++++++++++++++++++++++++++++++++++++wlw++++++++++++++++++++++++++++++www+++++++++++++++++++++++++++++++++++++++++++w+++++++++++++
(PID.TID 0000.0001) //     20 +++++++++++++++++++++++++++++++++++++++++wlw+++++++++++++++++++++++++++++++++++++++++++++++++++++++++++++++++++++++++++ww+++++++++++++
(PID.TID 0000.0001) //     19 +w+++++++++++++++++++++++++++++++++++++++ww+++++++++++++++++++++++++++++++++++++++++++++++++++++++++++++++++++++++++++ww+++++++++w++++
(PID.TID 0000.0001) //     18 w++++++++++++++++++++++++++++++++++++++++www++++++++++++++++++++++++++++++++++++++++++++++++++++++++++++++++++++++++++++++++++++w+++++
(PID.TID 0000.0001) //     17 +++++++++++++++++++++++++++++++++++++++++ww++++++++++++++++++++++++++++++++++++++++++++++++++++++++++++++++++++++++++++++++++++w++++++
(PID.TID 0000.0001) //     16 ++++++++++++++++++++++++++++++++++++++++www+++++++++++++++++++++++++++++++++++++++++++++++++++++++++++++++++++++++++++++++++++++++++++
(PID.TID 0000.0001) //     15 ++++++++++++++++++++++++++++++++++++++++www+++++++++++++++++++++++++++++++++++++++++++++++++++++++++++++++++++++++++++++++++++++++++++
(PID.TID 0000.0001) //     14 ++++++++++++++++++++++++++++++++++++++++++++++++++++++++++++++++++++++++++++++++++++++++++++++++++++++++++++++++++++++++++++++++++++++
(PID.TID 0000.0001) //     13 ++++++++++++++++++++++++++++++++++++++++++w+++++++++++++++++++++++++++++++++++++++++++++++++++++++++++++++++++++++++++++++++++++++++++
(PID.TID 0000.0001) //     12 ++++++++++++++++++++++++++++++++++++++++++++++++++++++++++++++++++++++++++++++++++++++++++++++++++++++++++++++++++++++++++++++++++++++
(PID.TID 0000.0001) //     11 ++++++++++++++++++++++++++++++++++++++++++++++++++++++++++++++++++++++++++++++++++++++++++++++++++++++++++++++++++++++++++++++++++++++
(PID.TID 0000.0001) //     10 +++++++++++++++++++++++++++++++++++++++++++++w++++++++++++++++++++++++++++++++++++++++++++++++++++++++++++++++++++++++++++++++++++++++
(PID.TID 0000.0001) //      9 +++++++++++++++++++++++++++++++++++++++++++ww+++++++++++++++++++++++++++++++++++++++wwww+++++++++wwwwwwwwwwwwwwwwwwwww++++++++++++++++
(PID.TID 0000.0001) //      8 +++++++++++++++++++++++++++++++++++++++++wwww+++++++++++++++++++++++++++++++++wwwwwlllllllww+wwlllllllllllllllllllllllwwwwww++++++++++
(PID.TID 0000.0001) //      7 +++++++++++++++++++++++++++++++++++++++++wwwww++++++++++++++++wwwwllllllllllllllllllllllllwwwllllllllllllllllllllllllllllllllwww++++++
(PID.TID 0000.0001) //      6 ++++++++++++++++wwwwwwwwwwwwwwwwwwwwwwwwwwwww+++++++++++++++wwlllllllllllllllllllllllllllwwllllllllllllllllllllllllllllllllwww++++++++
(PID.TID 0000.0001) //      5 ++++++++++++wwwwwwwllllwwwwwwwwwwwwwwww++++++++++w+++++wwwwwllllllllllllllllllllllllllllllllllllllllllllllllllllllllllllllllwww+++++++
(PID.TID 0000.0001) //      4 ++++++++++++wwwwwwwwwwwwwwwwwllllllwwwww+++++++wwwwwwwwwwwwwlllllllllllllllllllllllllllllllllllllllllllllllllllllllllllllwwww+++++++++
(PID.TID 0000.0001) //      3 www++++++++++++wwwwwwwwwwwwwllllllwwwwwwwwwwwwwwwwwwwwwwwlllllllllllllllllllllllllllllllllllllllllllllllllllllllllllllllllllllwwwww+++
(PID.TID 0000.0001) //      2 llllllllllllllllllllllllllllllllllwwwwwwwwwwllllllllllllllllllllllllllllllllllllllllllllllllllllllllllllllllllllllllllllllllllllllllll
(PID.TID 0000.0001) //      1 llllllllllllllllllllllllllllllllllllllllllllllllllllllllllllllllllllllllllllllllllllllllllllllllllllllllllllllllllllllllllllllllllllll
(PID.TID 0000.0001) //      0 ......................................................................................................................................
(PID.TID 0000.0001) //     -1 ......................................................................................................................................
(PID.TID 0000.0001) //     -2 ......................................................................................................................................
(PID.TID 0000.0001) // =======================================================
(PID.TID 0000.0001) // END OF FIELD                                          =
(PID.TID 0000.0001) // =======================================================
(PID.TID 0000.0001) 
(PID.TID 0000.0001) // =======================================================
(PID.TID 0000.0001) // Field hFacC at iteration          1
(PID.TID 0000.0001) // CMIN =          1.000000000000000E+00
(PID.TID 0000.0001) // CMAX =          1.000000000000000E+00
(PID.TID 0000.0001) // CINT =          0.000000000000000E+00
(PID.TID 0000.0001) // SYMBOLS (CMIN->CMAX): -abcdefghijklmnopqrstuvwxyz+
(PID.TID 0000.0001) //                  0.0: .
(PID.TID 0000.0001) // RANGE I (Lo:Hi:Step):(  -2: 131:   1)
(PID.TID 0000.0001) // RANGE J (Lo:Hi:Step):(  67:  -2:  -1)
(PID.TID 0000.0001) // RANGE K (Lo:Hi:Step):(   1:   1:   1)
(PID.TID 0000.0001) // =======================================================
(PID.TID 0000.0001) K =   1
(PID.TID 0000.0001) //                I=7       I=17      I=27      I=37      I=47      I=57      I=67      I=77      I=87      I=97      I=107     I=117     I=127
(PID.TID 0000.0001) // |--J--|**0123456|890123456|890123456|890123456|890123456|890123456|890123456|890123456|890123456|890123456|890123456|890123456|890123456|8901
(PID.TID 0000.0001) //     67 ......................................................................................................................................
(PID.TID 0000.0001) //     66 ......................................................................................................................................
(PID.TID 0000.0001) //     65 ......................................................................................................................................
(PID.TID 0000.0001) //     64 --------------------------------------------------------------------------------------------------------------------------------------
(PID.TID 0000.0001) //     63 --------------------------------------------------------------------------------------------------------------------------------------
(PID.TID 0000.0001) //     62 ----------------------------------........................----------------------------------------------------------------------------
(PID.TID 0000.0001) //     61 ---------------------------------............................----------....-----------------------------------------------------------
(PID.TID 0000.0001) //     60 ------------------------------------........................-----------....-----------------------------------------------------------
(PID.TID 0000.0001) //     59 -----------------------------------....-------..............---------------------------..---------------..----------------------------
(PID.TID 0000.0001) //     58 -------------------------------------.....-----............---------------------------------------------..----------------------------
(PID.TID 0000.0001) //     57 ...------..........--....---------------....----..........--------------....----------------------.........----.......-------......---
(PID.TID 0000.0001) //     56 ....------.............--....-------------...---.......----...---------...--------------...--------.........---.....................--
(PID.TID 0000.0001) //     55 .----------..............---.-------------..-----....----------------....---------------.----------........-----.................-----
(PID.TID 0000.0001) //     54 ----------.................-...---------..--------..-----------------...---------------------------..............--..........---------
(PID.TID 0000.0001) //     53 -----------.------.............------------..--------------------.------------------------------------...............------..---------
(PID.TID 0000.0001) //     52 --------------------..........----------.....------------------------------------------.----------..................-------..---------
(PID.TID 0000.0001) //     51 ---------------------...........--------......--------------------------.--------------.-----.--.....................-----------------
(PID.TID 0000.0001) //     50 ----------------------..........--.-----...--------------------------.......--------------...........................-----------------
(PID.TID 0000.0001) //     49 -----------------------............--.---..------------------------..........---------------...................-....------------------
(PID.TID 0000.0001) //     48 -----------------------..........-------..----------------------.-...-......-----...-------...................--..---.----------------
(PID.TID 0000.0001) //     47 -----------------------..........-----..------------------------...--.--.-...........-----....................-..---------------------
(PID.TID 0000.0001) //     46 -----------------------..........----..-------------------------...-----.-.--........-......................----.---.-----------------
(PID.TID 0000.0001) //     45 ------------------------........----..---------------------------.....---------.............................------...-----------------
(PID.TID 0000.0001) //     44 -------------------------.......--------------------------------......-.-------............................---------------------------
(PID.TID 0000.0001) //     43 --------------------------......-------------------------------..........-----.....--.......--................------------------------
(PID.TID 0000.0001) //     42 --------------------------.-....-------------------------------..---......-..-......-......--.---.............------------------------
(PID.TID 0000.0001) //     41 -----------------------------...-----------------------------------..........--.....---.-----.....--..........------------------------
(PID.TID 0000.0001) //     40 -----------------------------....----------------------------------..........--.....---------.....--.....-----------------------------
(PID.TID 0000.0001) //     39 ------------------------------.....------.-------------------------..............-.....------..-.----....-----------------------------
(PID.TID 0000.0001) //     38 ---------------------------------....--------------------------------..---.......-...--------..-------....----.-----------------------
(PID.TID 0000.0001) //     37 -----------------------------------..-------------------------...----..--..........-----------.----------.----------------------------
(PID.TID 0000.0001) //     36 -------------------------------------..-....------------------...----................---------.---------------------------------------
(PID.TID 0000.0001) //     35 --------------------------------------....-...------------------------..............---------------------------.----------------------
(PID.TID 0000.0001) //     34 ---------------------------------------...-...------------------------.............------------------.-.---..-------------------------
(PID.TID 0000.0001) //     33 ---------------------------------------..--..--------------------------..--......---------------------.----..-.-----------------------
(PID.TID 0000.0001) //     32 --------------------------------------..-------------------------------..-.......----------------------------..---.-------------------
(PID.TID 0000.0001) //     31 --------------------------------------..--------------------------------.........----------------------.------.----....---------------
(PID.TID 0000.0001) //     30 --------------------------------------..------------..------------------.........------------------------...---------...--------------
(PID.TID 0000.0001) //     29 ---------------------------------------..---.--..-....------------------.........----------------------------.-.----------------------
(PID.TID 0000.0001) //     28 ---------------------------------------....-.........-------------------.........-----------------------------------------------------
(PID.TID 0000.0001) //     27 ----------------------------------------....-........------------------..........---.-------------------------------------------------
(PID.TID 0000.0001) //     26 -----------------------------------------....--......------------------........----..---------------------------.-----.---------------
(PID.TID 0000.0001) //     25 ------------------------------------------...--......-------------------.......----.------------------------..--...---.---------------
(PID.TID 0000.0001) //     24 ------------------------------------------...--....---------------------.......----.------------------------.......----.--------------
(PID.TID 0000.0001) //     23 ------------------------------------------..----..----------------------......------------------------------.......----.--------------
(PID.TID 0000.0001) //     22 ------------------------------------------..----..-----------------------.....-------------------------------..---------.-------------
(PID.TID 0000.0001) //     21 -----------------------------------------...------------------------------...-------------------------------------------.-------------
(PID.TID 0000.0001) //     20 -----------------------------------------...---------------------------------------------------------------------------..-------------
(PID.TID 0000.0001) //     19 -.---------------------------------------..---------------------------------------------------------------------------..---------.----
(PID.TID 0000.0001) //     18 .----------------------------------------...------------------------------------------------------------------------------------.-----
(PID.TID 0000.0001) //     17 -----------------------------------------..------------------------------------------------------------------------------------.------
(PID.TID 0000.0001) //     16 ----------------------------------------...-------------------------------------------------------------------------------------------
(PID.TID 0000.0001) //     15 ----------------------------------------...-------------------------------------------------------------------------------------------
(PID.TID 0000.0001) //     14 --------------------------------------------------------------------------------------------------------------------------------------
(PID.TID 0000.0001) //     13 ------------------------------------------.-------------------------------------------------------------------------------------------
(PID.TID 0000.0001) //     12 --------------------------------------------------------------------------------------------------------------------------------------
(PID.TID 0000.0001) //     11 --------------------------------------------------------------------------------------------------------------------------------------
(PID.TID 0000.0001) //     10 ---------------------------------------------.----------------------------------------------------------------------------------------
(PID.TID 0000.0001) //      9 -------------------------------------------..---------------------------------------....---------.....................----------------
(PID.TID 0000.0001) //      8 -----------------------------------------....---------------------------------..............-...............................----------
(PID.TID 0000.0001) //      7 -----------------------------------------.....----------------..................................................................------
(PID.TID 0000.0001) //      6 ----------------.............................---------------..................................................................--------
(PID.TID 0000.0001) //      5 ------------...........................----------.-----........................................................................-------
(PID.TID 0000.0001) //      4 ------------............................-------..............................................................................---------
(PID.TID 0000.0001) //      3 ...------------....................................................................................................................---
(PID.TID 0000.0001) //      2 ......................................................................................................................................
(PID.TID 0000.0001) //      1 ......................................................................................................................................
(PID.TID 0000.0001) //      0 ......................................................................................................................................
(PID.TID 0000.0001) //     -1 ......................................................................................................................................
(PID.TID 0000.0001) //     -2 ......................................................................................................................................
(PID.TID 0000.0001) // =======================================================
(PID.TID 0000.0001) // END OF FIELD                                          =
(PID.TID 0000.0001) // =======================================================
(PID.TID 0000.0001) 
(PID.TID 0000.0001) // =======================================================
(PID.TID 0000.0001) // Field hFacW at iteration          1
(PID.TID 0000.0001) // CMIN =          1.000000000000000E+00
(PID.TID 0000.0001) // CMAX =          1.000000000000000E+00
(PID.TID 0000.0001) // CINT =          0.000000000000000E+00
(PID.TID 0000.0001) // SYMBOLS (CMIN->CMAX): -abcdefghijklmnopqrstuvwxyz+
(PID.TID 0000.0001) //                  0.0: .
(PID.TID 0000.0001) // RANGE I (Lo:Hi:Step):(  -2: 131:   1)
(PID.TID 0000.0001) // RANGE J (Lo:Hi:Step):(  67:  -2:  -1)
(PID.TID 0000.0001) // RANGE K (Lo:Hi:Step):(   1:   1:   1)
(PID.TID 0000.0001) // =======================================================
(PID.TID 0000.0001) K =   1
(PID.TID 0000.0001) //                I=7       I=17      I=27      I=37      I=47      I=57      I=67      I=77      I=87      I=97      I=107     I=117     I=127
(PID.TID 0000.0001) // |--J--|**0123456|890123456|890123456|890123456|890123456|890123456|890123456|890123456|890123456|890123456|890123456|890123456|890123456|8901
(PID.TID 0000.0001) //     67 ....-----------.....................................................................................................................--
(PID.TID 0000.0001) //     66 ......................................................................................................................................
(PID.TID 0000.0001) //     65 ......................................................................................................................................
(PID.TID 0000.0001) //     64 --------------------------------------------------------------------------------------------------------------------------------------
(PID.TID 0000.0001) //     63 --------------------------------------------------------------------------------------------------------------------------------------
(PID.TID 0000.0001) //     62 ----------------------------------.........................---------------------------------------------------------------------------
(PID.TID 0000.0001) //     61 ---------------------------------.............................---------.....----------------------------------------------------------
(PID.TID 0000.0001) //     60 ------------------------------------.........................----------.....----------------------------------------------------------
(PID.TID 0000.0001) //     59 -----------------------------------.....------...............--------------------------...--------------...---------------------------
(PID.TID 0000.0001) //     58 -------------------------------------......----.............--------------------------------------------...---------------------------
(PID.TID 0000.0001) //     57 ....-----...........-.....--------------.....---...........-------------.....---------------------..........---........------.......--
(PID.TID 0000.0001) //     56 .....-----..............-.....------------....--........---....--------....-------------....-------..........--......................-
(PID.TID 0000.0001) //     55 ..---------...............--..------------...----.....---------------.....--------------..---------.........----..................----
(PID.TID 0000.0001) //     54 ----------......................--------...-------...----------------....--------------------------...............-...........--------
(PID.TID 0000.0001) //     53 -----------..-----..............-----------...-------------------..-----------------------------------................-----...--------
(PID.TID 0000.0001) //     52 --------------------...........---------......-----------------------------------------..---------...................------...--------
(PID.TID 0000.0001) //     51 ---------------------............-------.......-------------------------..-------------..----..-......................----------------
(PID.TID 0000.0001) //     50 ----------------------...........-..----....-------------------------........-------------............................----------------
(PID.TID 0000.0001) //     49 -----------------------.............-..--...-----------------------...........--------------.........................-----------------
(PID.TID 0000.0001) //     48 -----------------------...........------...---------------------.............----....------....................-...--..---------------
(PID.TID 0000.0001) //     47 -----------------------...........----...-----------------------....-..-..............----........................--------------------
(PID.TID 0000.0001) //     46 -----------------------...........---...------------------------....----....-................................---..--..----------------
(PID.TID 0000.0001) //     45 ------------------------.........---...--------------------------......--------..............................-----....----------------
(PID.TID 0000.0001) //     44 -------------------------........-------------------------------.........------.............................--------------------------
(PID.TID 0000.0001) //     43 --------------------------.......------------------------------...........----......-........-.................-----------------------
(PID.TID 0000.0001) //     42 --------------------------.......------------------------------...--........................-..--..............-----------------------
(PID.TID 0000.0001) //     41 -----------------------------....----------------------------------...........-......--..----......-...........-----------------------
(PID.TID 0000.0001) //     40 -----------------------------.....---------------------------------...........-......--------......-......----------------------------
(PID.TID 0000.0001) //     39 ------------------------------......-----..------------------------.....................-----.....---.....----------------------------
(PID.TID 0000.0001) //     38 ---------------------------------.....-------------------------------...--............-------...------.....---..----------------------
(PID.TID 0000.0001) //     37 -----------------------------------...------------------------....---...-...........----------..---------..---------------------------
(PID.TID 0000.0001) //     36 -------------------------------------........-----------------....---.................--------..--------------------------------------
(PID.TID 0000.0001) //     35 --------------------------------------.........-----------------------...............--------------------------..---------------------
(PID.TID 0000.0001) //     34 ---------------------------------------........-----------------------..............-----------------....--...------------------------
(PID.TID 0000.0001) //     33 ---------------------------------------...-...-------------------------...-.......--------------------..---.....----------------------
(PID.TID 0000.0001) //     32 --------------------------------------...------------------------------...........---------------------------...--..------------------
(PID.TID 0000.0001) //     31 --------------------------------------...-------------------------------..........---------------------..-----..---.....--------------
(PID.TID 0000.0001) //     30 --------------------------------------...-----------...-----------------..........-----------------------....--------....-------------
(PID.TID 0000.0001) //     29 ---------------------------------------...--..-........-----------------..........---------------------------....---------------------
(PID.TID 0000.0001) //     28 ---------------------------------------...............------------------..........----------------------------------------------------
(PID.TID 0000.0001) //     27 ----------------------------------------..............-----------------...........--..------------------------------------------------
(PID.TID 0000.0001) //     26 -----------------------------------------.....-.......-----------------.........---...--------------------------..----..--------------
(PID.TID 0000.0001) //     25 ------------------------------------------....-.......------------------........---..-----------------------...-....--..--------------
(PID.TID 0000.0001) //     24 ------------------------------------------....-.....--------------------........---..-----------------------........---..-------------
(PID.TID 0000.0001) //     23 ------------------------------------------...---...---------------------.......-----------------------------........---..-------------
(PID.TID 0000.0001) //     22 ------------------------------------------...---...----------------------......------------------------------...--------..------------
(PID.TID 0000.0001) //     21 -----------------------------------------....-----------------------------....------------------------------------------..------------
(PID.TID 0000.0001) //     20 -----------------------------------------....--------------------------------------------------------------------------...------------
(PID.TID 0000.0001) //     19 -..--------------------------------------...--------------------------------------------------------------------------...--------..---
(PID.TID 0000.0001) //     18 ..---------------------------------------....-----------------------------------------------------------------------------------..----
(PID.TID 0000.0001) //     17 .----------------------------------------...-----------------------------------------------------------------------------------..-----
(PID.TID 0000.0001) //     16 ----------------------------------------....------------------------------------------------------------------------------------------
(PID.TID 0000.0001) //     15 ----------------------------------------....------------------------------------------------------------------------------------------
(PID.TID 0000.0001) //     14 --------------------------------------------------------------------------------------------------------------------------------------
(PID.TID 0000.0001) //     13 ------------------------------------------..------------------------------------------------------------------------------------------
(PID.TID 0000.0001) //     12 --------------------------------------------------------------------------------------------------------------------------------------
(PID.TID 0000.0001) //     11 --------------------------------------------------------------------------------------------------------------------------------------
(PID.TID 0000.0001) //     10 ---------------------------------------------..---------------------------------------------------------------------------------------
(PID.TID 0000.0001) //      9 -------------------------------------------...--------------------------------------.....--------......................---------------
(PID.TID 0000.0001) //      8 -----------------------------------------.....--------------------------------...............................................---------
(PID.TID 0000.0001) //      7 .----------------------------------------......---------------...................................................................-----
(PID.TID 0000.0001) //      6 ----------------..............................--------------...................................................................-------
(PID.TID 0000.0001) //      5 ------------............................---------..----.........................................................................------
(PID.TID 0000.0001) //      4 ------------.............................------...............................................................................--------
(PID.TID 0000.0001) //      3 ....-----------.....................................................................................................................--
(PID.TID 0000.0001) //      2 ......................................................................................................................................
(PID.TID 0000.0001) //      1 ......................................................................................................................................
(PID.TID 0000.0001) //      0 --------------------------------------------------------------------------------------------------------------------------------------
(PID.TID 0000.0001) //     -1 --------------------------------------------------------------------------------------------------------------------------------------
(PID.TID 0000.0001) //     -2 ----------------------------------.........................---------------------------------------------------------------------------
(PID.TID 0000.0001) // =======================================================
(PID.TID 0000.0001) // END OF FIELD                                          =
(PID.TID 0000.0001) // =======================================================
(PID.TID 0000.0001) 
(PID.TID 0000.0001) // =======================================================
(PID.TID 0000.0001) // Field hFacS at iteration          1
(PID.TID 0000.0001) // CMIN =          1.000000000000000E+00
(PID.TID 0000.0001) // CMAX =          1.000000000000000E+00
(PID.TID 0000.0001) // CINT =          0.000000000000000E+00
(PID.TID 0000.0001) // SYMBOLS (CMIN->CMAX): -abcdefghijklmnopqrstuvwxyz+
(PID.TID 0000.0001) //                  0.0: .
(PID.TID 0000.0001) // RANGE I (Lo:Hi:Step):(  -2: 131:   1)
(PID.TID 0000.0001) // RANGE J (Lo:Hi:Step):(  67:  -2:  -1)
(PID.TID 0000.0001) // RANGE K (Lo:Hi:Step):(   1:   1:   1)
(PID.TID 0000.0001) // =======================================================
(PID.TID 0000.0001) K =   1
(PID.TID 0000.0001) //                I=7       I=17      I=27      I=37      I=47      I=57      I=67      I=77      I=87      I=97      I=107     I=117     I=127
(PID.TID 0000.0001) // |--J--|**0123456|890123456|890123456|890123456|890123456|890123456|890123456|890123456|890123456|890123456|890123456|890123456|890123456|8901
(PID.TID 0000.0001) //     67 ......................................................................................................................................
(PID.TID 0000.0001) //     66 ......................................................................................................................................
(PID.TID 0000.0001) //     65 ......................................................................................................................................
(PID.TID 0000.0001) //     64 --------------------------------------------------------------------------------------------------------------------------------------
(PID.TID 0000.0001) //     63 ----------------------------------........................----------------------------------------------------------------------------
(PID.TID 0000.0001) //     62 ---------------------------------............................----------....-----------------------------------------------------------
(PID.TID 0000.0001) //     61 ---------------------------------............................----------....-----------------------------------------------------------
(PID.TID 0000.0001) //     60 -----------------------------------.........................-----------....------------..---------------..----------------------------
(PID.TID 0000.0001) //     59 -----------------------------------.......----..............---------------------------..---------------..----------------------------
(PID.TID 0000.0001) //     58 ...------..........--....------------.......---............-------------....----------------------.........----.......-------......---
(PID.TID 0000.0001) //     57 ....-----....................-----------.....---..........-...---------.....------------...-------..........---.....................--
(PID.TID 0000.0001) //     56 ....------...................-------------...---.......----...-------.....--------------...--------.........---.....................--
(PID.TID 0000.0001) //     55 .---------.................-...---------....-----....----------------....---------------.----------..............................-----
(PID.TID 0000.0001) //     54 ----------.....................---------..-..-----..-------------.---...---------------------------..........................---------
(PID.TID 0000.0001) //     53 -----------.------.............---------.....--------------------.---------------------.----------...................------..---------
(PID.TID 0000.0001) //     52 --------------------............--------......--------------------------.--------------.-----.--.....................------..---------
(PID.TID 0000.0001) //     51 ---------------------...........--.-----......-----------------------.......-----------.--...........................-----------------
(PID.TID 0000.0001) //     50 ----------------------.............--.--...------------------------..........-------------...........................-----------------
(PID.TID 0000.0001) //     49 -----------------------............--.--...---------------------.-...........----...-------....................-....-.----------------
(PID.TID 0000.0001) //     48 -----------------------..........-----....----------------------.....................-----....................-...---.----------------
(PID.TID 0000.0001) //     47 -----------------------..........----...------------------------...--.--.-...........-........................-..---.-----------------
(PID.TID 0000.0001) //     46 -----------------------..........---...-------------------------......--.-.--...............................----.-...-----------------
(PID.TID 0000.0001) //     45 ------------------------........----..--------------------------......-.-------.............................------...-----------------
(PID.TID 0000.0001) //     44 -------------------------.......-------------------------------..........-----................................------------------------
(PID.TID 0000.0001) //     43 --------------------------......-------------------------------...........-..-......-.......-.................------------------------
(PID.TID 0000.0001) //     42 --------------------------.-....-------------------------------..--..........-......-......--.................------------------------
(PID.TID 0000.0001) //     41 -----------------------------....----------------------------------..........--.....---.-----.....--..........------------------------
(PID.TID 0000.0001) //     40 -----------------------------......------.-------------------------....................------.....--.....-----------------------------
(PID.TID 0000.0001) //     39 ------------------------------.......----.-------------------------..............-.....------..-.----.....----.-----------------------
(PID.TID 0000.0001) //     38 ---------------------------------....-------------------------...----..--............--------..-------....----.-----------------------
(PID.TID 0000.0001) //     37 -----------------------------------....-....------------------...----................---------.----------.----------------------------
(PID.TID 0000.0001) //     36 -------------------------------------.........----------------...----................---------.----------------.----------------------
(PID.TID 0000.0001) //     35 --------------------------------------....-...------------------------..............-----------------.-.---..--.----------------------
(PID.TID 0000.0001) //     34 ---------------------------------------...-...------------------------.............------------------...---..-.-----------------------
(PID.TID 0000.0001) //     33 --------------------------------------...--..--------------------------..-.......---------------------.----....---.-------------------
(PID.TID 0000.0001) //     32 --------------------------------------..-------------------------------..........----------------------.-----..---.....---------------
(PID.TID 0000.0001) //     31 --------------------------------------..------------..------------------.........----------------------.-...--.----.....--------------
(PID.TID 0000.0001) //     30 --------------------------------------...---.--..-....------------------.........------------------------...-.-.-----...--------------
(PID.TID 0000.0001) //     29 ---------------------------------------....-..........------------------.........----------------------------.-.----------------------
(PID.TID 0000.0001) //     28 ---------------------------------------..............------------------..........---.-------------------------------------------------
(PID.TID 0000.0001) //     27 ----------------------------------------.............------------------..........--..---------------------------.-----.---------------
(PID.TID 0000.0001) //     26 -----------------------------------------....--......------------------........----..-----------------------..--...---.---------------
(PID.TID 0000.0001) //     25 ------------------------------------------...--......-------------------.......----.------------------------.......---..--------------
(PID.TID 0000.0001) //     24 ------------------------------------------...--....---------------------.......----.------------------------.......----.--------------
(PID.TID 0000.0001) //     23 ------------------------------------------..----..----------------------......------------------------------.......----..-------------
(PID.TID 0000.0001) //     22 -----------------------------------------...----..-----------------------.....-------------------------------..---------.-------------
(PID.TID 0000.0001) //     21 -----------------------------------------...------------------------------...------------------------------------------..-------------
(PID.TID 0000.0001) //     20 -.---------------------------------------...--------------------------------------------------------------------------...--------.----
(PID.TID 0000.0001) //     19 ..---------------------------------------...--------------------------------------------------------------------------..--------..----
(PID.TID 0000.0001) //     18 .----------------------------------------...-----------------------------------------------------------------------------------..-----
(PID.TID 0000.0001) //     17 ----------------------------------------...------------------------------------------------------------------------------------.------
(PID.TID 0000.0001) //     16 ----------------------------------------...-------------------------------------------------------------------------------------------
(PID.TID 0000.0001) //     15 ----------------------------------------...-------------------------------------------------------------------------------------------
(PID.TID 0000.0001) //     14 ------------------------------------------.-------------------------------------------------------------------------------------------
(PID.TID 0000.0001) //     13 ------------------------------------------.-------------------------------------------------------------------------------------------
(PID.TID 0000.0001) //     12 --------------------------------------------------------------------------------------------------------------------------------------
(PID.TID 0000.0001) //     11 ---------------------------------------------.----------------------------------------------------------------------------------------
(PID.TID 0000.0001) //     10 -------------------------------------------...--------------------------------------....---------.....................----------------
(PID.TID 0000.0001) //      9 -----------------------------------------....---------------------------------..............-...............................----------
(PID.TID 0000.0001) //      8 -----------------------------------------.....----------------..................................................................------
(PID.TID 0000.0001) //      7 ----------------..............................--------------....................................................................------
(PID.TID 0000.0001) //      6 ------------.................................----.-----........................................................................-------
(PID.TID 0000.0001) //      5 ------------............................-------................................................................................-------
(PID.TID 0000.0001) //      4 ...---------.......................................................................................................................---
(PID.TID 0000.0001) //      3 ......................................................................................................................................
(PID.TID 0000.0001) //      2 ......................................................................................................................................
(PID.TID 0000.0001) //      1 ......................................................................................................................................
(PID.TID 0000.0001) //      0 ......................................................................................................................................
(PID.TID 0000.0001) //     -1 ......................................................................................................................................
(PID.TID 0000.0001) //     -2 ......................................................................................................................................
(PID.TID 0000.0001) // =======================================================
(PID.TID 0000.0001) // END OF FIELD                                          =
(PID.TID 0000.0001) // =======================================================
(PID.TID 0000.0001) 
(PID.TID 0000.0001)  PACKAGES_BOOT: opening data.pkg
(PID.TID 0000.0001)  OPEN_COPY_DATA_FILE: opening file data.pkg
(PID.TID 0000.0001) // =======================================================
(PID.TID 0000.0001) // Parameter file "data.pkg"
(PID.TID 0000.0001) // =======================================================
(PID.TID 0000.0001) ># Packages
(PID.TID 0000.0001) > &PACKAGES
(PID.TID 0000.0001) > useAIM=.TRUE.,
(PID.TID 0000.0001) > useSHAP_FILT=.TRUE.,
(PID.TID 0000.0001) > useZONAL_FILT=.TRUE.,
(PID.TID 0000.0001) > &
(PID.TID 0000.0001) 
(PID.TID 0000.0001)  PACKAGES_BOOT: finished reading data.pkg
(PID.TID 0000.0001)  SHAP_FILT_READPARMS: opening data.shap
(PID.TID 0000.0001)  OPEN_COPY_DATA_FILE: opening file data.shap
(PID.TID 0000.0001) // =======================================================
(PID.TID 0000.0001) // Parameter file "data.shap"
(PID.TID 0000.0001) // =======================================================
(PID.TID 0000.0001) ># Shapiro Filter parameters
(PID.TID 0000.0001) > &SHAP_PARM01
(PID.TID 0000.0001) > shap_filt_uvStar=.FALSE.,
(PID.TID 0000.0001) > shap_filt_TrStagg=.TRUE.,
(PID.TID 0000.0001) > Shap_funct=4,
(PID.TID 0000.0001) > nShapT=0,
(PID.TID 0000.0001) > nShapUV=4,
(PID.TID 0000.0001) >#nShapTrPhys=4,
(PID.TID 0000.0001) >#nShapUVPhys=4,
(PID.TID 0000.0001) >#Shap_TrLength=115000.,
(PID.TID 0000.0001) >#Shap_uvLength=110000.,
(PID.TID 0000.0001) >#Shap_Trtau=3600.,
(PID.TID 0000.0001) >#Shap_uvtau=3600.,
(PID.TID 0000.0001) > Shap_noSlip=1.,
(PID.TID 0000.0001) > &
(PID.TID 0000.0001) >
(PID.TID 0000.0001) 
(PID.TID 0000.0001)  SHAP_FILT_READPARMS: finished reading data.shap
(PID.TID 0000.0001) Shap_funct =   /* select Shapiro filter function */
(PID.TID 0000.0001)                       4
(PID.TID 0000.0001)     ;
(PID.TID 0000.0001) nShapTr =   /* power of Shapiro filter for Tracers */
(PID.TID 0000.0001)                       0
(PID.TID 0000.0001)     ;
(PID.TID 0000.0001) nShapUV =   /* power of Shapiro filter for momentum */
(PID.TID 0000.0001)                       4
(PID.TID 0000.0001)     ;
[...]
(PID.TID 0000.0001) %MON dynstat_wvel_sd              =   8.2054717108211E-02
(PID.TID 0000.0001) %MON dynstat_wvel_del2            =   1.7159642757327E-02
(PID.TID 0000.0001) %MON dynstat_theta_max            =   4.7747731882610E+02
(PID.TID 0000.0001) %MON dynstat_theta_min            =   2.3966076867346E+02
(PID.TID 0000.0001) %MON dynstat_theta_mean           =   3.3183415444744E+02
(PID.TID 0000.0001) %MON dynstat_theta_sd             =   5.1268746355352E+01
(PID.TID 0000.0001) %MON dynstat_theta_del2           =   6.8094712938261E-01
(PID.TID 0000.0001) %MON dynstat_salt_max             =   1.8191061427373E+01
(PID.TID 0000.0001) %MON dynstat_salt_min             =  -2.4068869281387E+00
(PID.TID 0000.0001) %MON dynstat_salt_mean            =   2.3373413967447E+00
(PID.TID 0000.0001) %MON dynstat_salt_sd              =   3.4291574049340E+00
(PID.TID 0000.0001) %MON dynstat_salt_del2            =   1.2153147737812E-01
(PID.TID 0000.0001) %MON advcfl_uvel_max              =   5.9489198162745E-01
(PID.TID 0000.0001) %MON advcfl_vvel_max              =   5.9432679942937E-02
(PID.TID 0000.0001) %MON advcfl_wvel_max              =   1.9884230410523E-02
(PID.TID 0000.0001) %MON advcfl_W_hf_max              =   6.9594806436832E-02
(PID.TID 0000.0001) %MON pe_b_mean                    =   3.0567487378777E+01
(PID.TID 0000.0001) %MON ke_max                       =   2.5082703766698E+03
(PID.TID 0000.0001) %MON ke_mean                      =   1.2774463004066E+02
(PID.TID 0000.0001) %MON ke_vol                       =   4.9304391457663E+19
(PID.TID 0000.0001) %MON vort_r_min                   =  -1.6431933781105E-04
(PID.TID 0000.0001) %MON vort_r_max                   =   1.0184948850921E-04
(PID.TID 0000.0001) %MON vort_a_mean                  =  -3.8157401873810E-07
(PID.TID 0000.0001) %MON vort_a_sd                    =   8.7012351033369E-05
(PID.TID 0000.0001) %MON vort_p_mean                  =  -3.8722425669924E-07
(PID.TID 0000.0001) %MON vort_p_sd                    =   8.9927877744471E-05
(PID.TID 0000.0001) %MON surfExpan_theta_mean         =  -6.9233353757259E-03
(PID.TID 0000.0001) %MON surfExpan_salt_mean          =  -1.4869954215871E-03
(PID.TID 0000.0001) %MON surfExpan_Heat_mean          =  -7.3145523357669E-01
(PID.TID 0000.0001) %MON En_Budget_T2PE_mean          =   1.5041546395398E+00
(PID.TID 0000.0001) // =======================================================
(PID.TID 0000.0001) // End MONITOR dynamic field statistics
(PID.TID 0000.0001) // =======================================================
 cg2d: Sum(rhs),rhsMax =  -4.13717060609997E-10  1.12837101871615E+03
(PID.TID 0000.0001)                    cg2d_init_res =    2.57458951903775E+05
(PID.TID 0000.0001)                       cg2d_iters =   169
(PID.TID 0000.0001)                         cg2d_res =    2.27492134570635E-12
(PID.TID 0000.0001) // =======================================================
(PID.TID 0000.0001) // Begin MONITOR dynamic field statistics
(PID.TID 0000.0001) // =======================================================
(PID.TID 0000.0001) %MON time_tsnumber                =                 17289
(PID.TID 0000.0001) %MON time_secondsf                =   7.7800500000000E+06
(PID.TID 0000.0001) %MON dynstat_eta_max              =   2.7196388074274E+04
(PID.TID 0000.0001) %MON dynstat_eta_min              =  -3.4270363448457E+04
(PID.TID 0000.0001) %MON dynstat_eta_mean             =  -2.6168160782224E-13
(PID.TID 0000.0001) %MON dynstat_eta_sd               =   2.4313035385203E+03
(PID.TID 0000.0001) %MON dynstat_eta_del2             =   3.0981675272639E+03
(PID.TID 0000.0001) %MON dynstat_uvel_max             =   7.0021306624809E+01
(PID.TID 0000.0001) %MON dynstat_uvel_min             =  -2.9607165225995E+01
(PID.TID 0000.0001) %MON dynstat_uvel_mean            =   7.2242402569606E+00
(PID.TID 0000.0001) %MON dynstat_uvel_sd              =   1.2845965621942E+01
(PID.TID 0000.0001) %MON dynstat_uvel_del2            =   6.1412421233174E-01
(PID.TID 0000.0001) %MON dynstat_vvel_max             =   3.5214295969457E+01
(PID.TID 0000.0001) %MON dynstat_vvel_min             =  -4.1265421107371E+01
(PID.TID 0000.0001) %MON dynstat_vvel_mean            =   1.0569901191295E-02
(PID.TID 0000.0001) %MON dynstat_vvel_sd              =   6.3329448840733E+00
(PID.TID 0000.0001) %MON dynstat_vvel_del2            =   4.4966689022685E-01
(PID.TID 0000.0001) %MON dynstat_wvel_max             =   1.0491151522412E+00
(PID.TID 0000.0001) %MON dynstat_wvel_min             =  -8.0920823225599E-01
(PID.TID 0000.0001) %MON dynstat_wvel_mean            =  -4.0522118963785E-06
(PID.TID 0000.0001) %MON dynstat_wvel_sd              =   8.2026817282365E-02
(PID.TID 0000.0001) %MON dynstat_wvel_del2            =   1.7154549792028E-02
(PID.TID 0000.0001) %MON dynstat_theta_max            =   4.7748468074533E+02
(PID.TID 0000.0001) %MON dynstat_theta_min            =   2.3969859365716E+02
(PID.TID 0000.0001) %MON dynstat_theta_mean           =   3.3183485392577E+02
(PID.TID 0000.0001) %MON dynstat_theta_sd             =   5.1268094862963E+01
(PID.TID 0000.0001) %MON dynstat_theta_del2           =   6.8087981649179E-01
(PID.TID 0000.0001) %MON dynstat_salt_max             =   1.8192328455384E+01
(PID.TID 0000.0001) %MON dynstat_salt_min             =  -2.4103830061019E+00
(PID.TID 0000.0001) %MON dynstat_salt_mean            =   2.3374477925024E+00
(PID.TID 0000.0001) %MON dynstat_salt_sd              =   3.4291734436943E+00
(PID.TID 0000.0001) %MON dynstat_salt_del2            =   1.2153695288107E-01
(PID.TID 0000.0001) %MON advcfl_uvel_max              =   5.9401980937700E-01
(PID.TID 0000.0001) %MON advcfl_vvel_max              =   5.9386737062039E-02
(PID.TID 0000.0001) %MON advcfl_wvel_max              =   1.9847496998631E-02
(PID.TID 0000.0001) %MON advcfl_W_hf_max              =   6.9466239495210E-02
(PID.TID 0000.0001) %MON pe_b_mean                    =   3.0566906919657E+01
(PID.TID 0000.0001) %MON ke_max                       =   2.5064144341951E+03
(PID.TID 0000.0001) %MON ke_mean                      =   1.2773560213430E+02
(PID.TID 0000.0001) %MON ke_vol                       =   4.9304391457663E+19
(PID.TID 0000.0001) %MON vort_r_min                   =  -1.6534664262370E-04
(PID.TID 0000.0001) %MON vort_r_max                   =   1.0212741737270E-04
(PID.TID 0000.0001) %MON vort_a_mean                  =  -3.8157546768178E-07
(PID.TID 0000.0001) %MON vort_a_sd                    =   8.7012146454652E-05
(PID.TID 0000.0001) %MON vort_p_mean                  =  -3.8722572709845E-07
(PID.TID 0000.0001) %MON vort_p_sd                    =   8.9927703717864E-05
(PID.TID 0000.0001) %MON surfExpan_theta_mean         =  -6.6844335315856E-03
(PID.TID 0000.0001) %MON surfExpan_salt_mean          =  -1.4216568737143E-03
(PID.TID 0000.0001) %MON surfExpan_Heat_mean          =  -7.1911177923342E-01
(PID.TID 0000.0001) %MON En_Budget_T2PE_mean          =   1.5091887942787E+00
(PID.TID 0000.0001) // =======================================================
(PID.TID 0000.0001) // End MONITOR dynamic field statistics
(PID.TID 0000.0001) // =======================================================
 cg2d: Sum(rhs),rhsMax =  -5.93853854979898E-10  1.12849136344928E+03
(PID.TID 0000.0001)                    cg2d_init_res =    2.57471593376539E+05
(PID.TID 0000.0001)                       cg2d_iters =   169
(PID.TID 0000.0001)                         cg2d_res =    2.26848904065858E-12
(PID.TID 0000.0001) // =======================================================
(PID.TID 0000.0001) // Begin MONITOR dynamic field statistics
(PID.TID 0000.0001) // =======================================================
(PID.TID 0000.0001) %MON time_tsnumber                =                 17290
(PID.TID 0000.0001) %MON time_secondsf                =   7.7805000000000E+06
(PID.TID 0000.0001) %MON dynstat_eta_max              =   2.7193697511494E+04
(PID.TID 0000.0001) %MON dynstat_eta_min              =  -3.4256743196902E+04
(PID.TID 0000.0001) %MON dynstat_eta_mean             =   1.1479263214846E-13
(PID.TID 0000.0001) %MON dynstat_eta_sd               =   2.4312773082834E+03
(PID.TID 0000.0001) %MON dynstat_eta_del2             =   3.0982615238319E+03
(PID.TID 0000.0001) %MON dynstat_uvel_max             =   7.0017604038287E+01
(PID.TID 0000.0001) %MON dynstat_uvel_min             =  -2.9607128005403E+01
(PID.TID 0000.0001) %MON dynstat_uvel_mean            =   7.2242039507561E+00
(PID.TID 0000.0001) %MON dynstat_uvel_sd              =   1.2845588869475E+01
(PID.TID 0000.0001) %MON dynstat_uvel_del2            =   6.1403478003310E-01
(PID.TID 0000.0001) %MON dynstat_vvel_max             =   3.5139678848806E+01
(PID.TID 0000.0001) %MON dynstat_vvel_min             =  -4.1228984697096E+01
(PID.TID 0000.0001) %MON dynstat_vvel_mean            =   1.0110113893071E-02
(PID.TID 0000.0001) %MON dynstat_vvel_sd              =   6.3322692191851E+00
(PID.TID 0000.0001) %MON dynstat_vvel_del2            =   4.4957703030019E-01
(PID.TID 0000.0001) %MON dynstat_wvel_max             =   1.0471279585231E+00
(PID.TID 0000.0001) %MON dynstat_wvel_min             =  -8.1139544274820E-01
(PID.TID 0000.0001) %MON dynstat_wvel_mean            =  -4.3515947866531E-06
(PID.TID 0000.0001) %MON dynstat_wvel_sd              =   8.1993087009002E-02
(PID.TID 0000.0001) %MON dynstat_wvel_del2            =   1.7146751256897E-02
(PID.TID 0000.0001) %MON dynstat_theta_max            =   4.7748880142165E+02
(PID.TID 0000.0001) %MON dynstat_theta_min            =   2.3973612639066E+02
(PID.TID 0000.0001) %MON dynstat_theta_mean           =   3.3183547490055E+02
(PID.TID 0000.0001) %MON dynstat_theta_sd             =   5.1267471701818E+01
(PID.TID 0000.0001) %MON dynstat_theta_del2           =   6.8077732588288E-01
(PID.TID 0000.0001) %MON dynstat_salt_max             =   1.8193641377664E+01
(PID.TID 0000.0001) %MON dynstat_salt_min             =  -2.4138044366241E+00
(PID.TID 0000.0001) %MON dynstat_salt_mean            =   2.3375787297052E+00
(PID.TID 0000.0001) %MON dynstat_salt_sd              =   3.4292359335010E+00
(PID.TID 0000.0001) %MON dynstat_salt_del2            =   1.2155541948686E-01
(PID.TID 0000.0001) %MON advcfl_uvel_max              =   5.9315196969507E-01
(PID.TID 0000.0001) %MON advcfl_vvel_max              =   5.9334299949841E-02
(PID.TID 0000.0001) %MON advcfl_wvel_max              =   1.9811091551759E-02
(PID.TID 0000.0001) %MON advcfl_W_hf_max              =   6.9338820431158E-02
(PID.TID 0000.0001) %MON pe_b_mean                    =   3.0566247378079E+01
(PID.TID 0000.0001) %MON ke_max                       =   2.5051004720358E+03
(PID.TID 0000.0001) %MON ke_mean                      =   1.2772628972647E+02
(PID.TID 0000.0001) %MON ke_vol                       =   4.9304391457663E+19
(PID.TID 0000.0001) %MON vort_r_min                   =  -1.6628818668117E-04
(PID.TID 0000.0001) %MON vort_r_max                   =   1.0240796099867E-04
(PID.TID 0000.0001) %MON vort_a_mean                  =  -3.8157695391934E-07
(PID.TID 0000.0001) %MON vort_a_sd                    =   8.7011931024494E-05
(PID.TID 0000.0001) %MON vort_p_mean                  =  -3.8722723534379E-07
(PID.TID 0000.0001) %MON vort_p_sd                    =   8.9927523427587E-05
(PID.TID 0000.0001) %MON surfExpan_theta_mean         =  -6.4786634968972E-03
(PID.TID 0000.0001) %MON surfExpan_salt_mean          =  -1.3280650955283E-03
(PID.TID 0000.0001) %MON surfExpan_Heat_mean          =  -7.0256257210810E-01
(PID.TID 0000.0001) %MON En_Budget_T2PE_mean          =   1.5063932887625E+00
(PID.TID 0000.0001) // =======================================================
(PID.TID 0000.0001) // End MONITOR dynamic field statistics
(PID.TID 0000.0001) // =======================================================
(PID.TID 0000.0001) %CHECKPOINT     17290 ckptA
(PID.TID 0000.0001)   Seconds in section "ALL                    [THE_MODEL_MAIN]":
(PID.TID 0000.0001)           User time:  5.3499999
(PID.TID 0000.0001)         System time:  0.119999997
(PID.TID 0000.0001)     Wall clock time:  5.60021603
(PID.TID 0000.0001)          No. starts: 1
(PID.TID 0000.0001)           No. stops: 1
(PID.TID 0000.0001)   Seconds in section "INITIALISE_FIXED       [THE_MODEL_MAIN]":
(PID.TID 0000.0001)           User time:  0.159999996
(PID.TID 0000.0001)         System time:  0.00999999978
(PID.TID 0000.0001)     Wall clock time:  0.184274077
(PID.TID 0000.0001)          No. starts: 1
(PID.TID 0000.0001)           No. stops: 1
(PID.TID 0000.0001)   Seconds in section "THE_MAIN_LOOP          [THE_MODEL_MAIN]":
(PID.TID 0000.0001)           User time:  5.12999997
(PID.TID 0000.0001)         System time:  0.0900000017
(PID.TID 0000.0001)     Wall clock time:  5.33120298
(PID.TID 0000.0001)          No. starts: 1
(PID.TID 0000.0001)           No. stops: 1
(PID.TID 0000.0001)   Seconds in section "INITIALISE_VARIA    [THE_MAIN_LOOP]":
(PID.TID 0000.0001)           User time:  0.0900000036
(PID.TID 0000.0001)         System time:  0.040000001
(PID.TID 0000.0001)     Wall clock time:  0.181828022
(PID.TID 0000.0001)          No. starts: 1
(PID.TID 0000.0001)           No. stops: 1
(PID.TID 0000.0001)   Seconds in section "WRITE_STATE         [THE_MAIN_LOOP]":
(PID.TID 0000.0001)           User time:  0.0300000012
(PID.TID 0000.0001)         System time:  0.00999999791
(PID.TID 0000.0001)     Wall clock time:  0.0400459766
(PID.TID 0000.0001)          No. starts: 1
(PID.TID 0000.0001)           No. stops: 1
(PID.TID 0000.0001)   Seconds in section "MONITOR             [THE_MAIN_LOOP]":
(PID.TID 0000.0001)           User time:  0.0500000119
(PID.TID 0000.0001)         System time:  0.
(PID.TID 0000.0001)     Wall clock time:  0.0555980206
(PID.TID 0000.0001)          No. starts: 1
(PID.TID 0000.0001)           No. stops: 1
(PID.TID 0000.0001)   Seconds in section "MAIN LOOP           [THE_MAIN_LOOP]":
(PID.TID 0000.0001)           User time:  4.95999995
(PID.TID 0000.0001)         System time:  0.0400000028
(PID.TID 0000.0001)     Wall clock time:  5.05362403
(PID.TID 0000.0001)          No. starts: 1
(PID.TID 0000.0001)           No. stops: 1
(PID.TID 0000.0001)   Seconds in section "FORWARD_STEP        [THE_MAIN_LOOP]":
(PID.TID 0000.0001)           User time:  4.95999995
(PID.TID 0000.0001)         System time:  0.0400000028
(PID.TID 0000.0001)     Wall clock time:  5.0534054
(PID.TID 0000.0001)          No. starts: 10
(PID.TID 0000.0001)           No. stops: 10
(PID.TID 0000.0001)   Seconds in section "UPDATE_ETAH        [FORWARD_STEP]":
(PID.TID 0000.0001)           User time:  0.
(PID.TID 0000.0001)         System time:  0.
(PID.TID 0000.0001)     Wall clock time:  0.000681042671
(PID.TID 0000.0001)          No. starts: 10
(PID.TID 0000.0001)           No. stops: 10
(PID.TID 0000.0001)   Seconds in section "EXTERNAL_FIELDS_LOAD[FORWARD_STEP]":
(PID.TID 0000.0001)           User time:  0.00999999046
(PID.TID 0000.0001)         System time:  0.0100000016
(PID.TID 0000.0001)     Wall clock time:  0.0386042595
(PID.TID 0000.0001)          No. starts: 10
(PID.TID 0000.0001)           No. stops: 10
(PID.TID 0000.0001)   Seconds in section "THERMODYNAMICS      [FORWARD_STEP]":
(PID.TID 0000.0001)           User time:  2.25999978
(PID.TID 0000.0001)         System time:  0.
(PID.TID 0000.0001)     Wall clock time:  2.29505074
(PID.TID 0000.0001)          No. starts: 10
(PID.TID 0000.0001)           No. stops: 10
(PID.TID 0000.0001)   Seconds in section "AIM_DO_PHYSICS   [THERMODYNAMICS]":
(PID.TID 0000.0001)           User time:  1.96999958
(PID.TID 0000.0001)         System time:  0.
(PID.TID 0000.0001)     Wall clock time:  1.99100816
(PID.TID 0000.0001)          No. starts: 10
(PID.TID 0000.0001)           No. stops: 10
(PID.TID 0000.0001)   Seconds in section "BLOCKING_EXCHANGES  [FORWARD_STEP]":
(PID.TID 0000.0001)           User time:  0.00999999046
(PID.TID 0000.0001)         System time:  0.
(PID.TID 0000.0001)     Wall clock time:  0.00695192814
(PID.TID 0000.0001)          No. starts: 20
(PID.TID 0000.0001)           No. stops: 20
(PID.TID 0000.0001)   Seconds in section "SHAP_FILT           [FORWARD_STEP]":
(PID.TID 0000.0001)           User time:  0.
(PID.TID 0000.0001)         System time:  0.
(PID.TID 0000.0001)     Wall clock time:  0.000198960304
(PID.TID 0000.0001)          No. starts: 10
(PID.TID 0000.0001)           No. stops: 10
(PID.TID 0000.0001)   Seconds in section "DYNAMICS            [FORWARD_STEP]":
(PID.TID 0000.0001)           User time:  0.500000536
(PID.TID 0000.0001)         System time:  0.00999999791
(PID.TID 0000.0001)     Wall clock time:  0.482379079
(PID.TID 0000.0001)          No. starts: 10
(PID.TID 0000.0001)           No. stops: 10
(PID.TID 0000.0001)   Seconds in section "SOLVE_FOR_PRESSURE  [FORWARD_STEP]":
(PID.TID 0000.0001)           User time:  1.15999997
(PID.TID 0000.0001)         System time:  0.
(PID.TID 0000.0001)     Wall clock time:  1.18206704
(PID.TID 0000.0001)          No. starts: 10
(PID.TID 0000.0001)           No. stops: 10
(PID.TID 0000.0001)   Seconds in section "THE_CORRECTION_STEP [FORWARD_STEP]":
(PID.TID 0000.0001)           User time:  0.489999294
(PID.TID 0000.0001)         System time:  0.
(PID.TID 0000.0001)     Wall clock time:  0.475113034
(PID.TID 0000.0001)          No. starts: 10
(PID.TID 0000.0001)           No. stops: 10
(PID.TID 0000.0001)   Seconds in section "MONITOR             [FORWARD_STEP]":
(PID.TID 0000.0001)           User time:  0.500000656
(PID.TID 0000.0001)         System time:  0.
(PID.TID 0000.0001)     Wall clock time:  0.508443475
(PID.TID 0000.0001)          No. starts: 10
(PID.TID 0000.0001)           No. stops: 10
(PID.TID 0000.0001)   Seconds in section "DO_THE_MODEL_IO     [FORWARD_STEP]":
(PID.TID 0000.0001)           User time:  0.029999733
(PID.TID 0000.0001)         System time:  0.0200000033
(PID.TID 0000.0001)     Wall clock time:  0.0609946251
(PID.TID 0000.0001)          No. starts: 10
(PID.TID 0000.0001)           No. stops: 10
(PID.TID 0000.0001)   Seconds in section "WRITE_CHECKPOINT    [FORWARD_STEP]":
(PID.TID 0000.0001)           User time:  0.
(PID.TID 0000.0001)         System time:  0.
(PID.TID 0000.0001)     Wall clock time:  0.000205874443
(PID.TID 0000.0001)          No. starts: 10
(PID.TID 0000.0001)           No. stops: 10
(PID.TID 0000.0001)   Seconds in section "WRITE_CHECKPOINT       [THE_MODEL_MAIN]":
(PID.TID 0000.0001)           User time:  0.0599999428
(PID.TID 0000.0001)         System time:  0.0199999958
(PID.TID 0000.0001)     Wall clock time:  0.0846420527
(PID.TID 0000.0001)          No. starts: 1
(PID.TID 0000.0001)           No. stops: 1
(PID.TID 0000.0001) // ======================================================
(PID.TID 0000.0001) // Tile <-> Tile communication statistics
(PID.TID 0000.0001) // ======================================================
(PID.TID 0000.0001) // o Tile number: 000001
(PID.TID 0000.0001) //         No. X exchanges =              0
(PID.TID 0000.0001) //            Max. X spins =              0
(PID.TID 0000.0001) //            Min. X spins =     1000000000
(PID.TID 0000.0001) //          Total. X spins =              0
(PID.TID 0000.0001) //            Avg. X spins =       0.00E+00
(PID.TID 0000.0001) //         No. Y exchanges =              0
(PID.TID 0000.0001) //            Max. Y spins =              0
(PID.TID 0000.0001) //            Min. Y spins =     1000000000
(PID.TID 0000.0001) //          Total. Y spins =              0
(PID.TID 0000.0001) //            Avg. Y spins =       0.00E+00
(PID.TID 0000.0001) // o Thread number: 000001
(PID.TID 0000.0001) //            No. barriers =          24501
(PID.TID 0000.0001) //      Max. barrier spins =              1
(PID.TID 0000.0001) //      Min. barrier spins =              1
(PID.TID 0000.0001) //     Total barrier spins =          24501
(PID.TID 0000.0001) //      Avg. barrier spins =       1.00E+00
