(PID.TID 0000.0001) 
(PID.TID 0000.0001) // ======================================================
(PID.TID 0000.0001) //                      MITgcm UV
(PID.TID 0000.0001) //                      =========
(PID.TID 0000.0001) // ======================================================
(PID.TID 0000.0001) // execution environment starting up...
(PID.TID 0000.0001) 
(PID.TID 0000.0001) // MITgcmUV version:  checkpoint59d
(PID.TID 0000.0001) // Build user:        heimbach
(PID.TID 0000.0001) // Build host:        ross.mit.edu
(PID.TID 0000.0001) // Build date:        Sat Jun 23 09:41:09 EDT 2007
(PID.TID 0000.0001) 
(PID.TID 0000.0001) // =======================================================
(PID.TID 0000.0001) // Execution Environment parameter file "eedata"
(PID.TID 0000.0001) // =======================================================
(PID.TID 0000.0001) ># Example "eedata" file
(PID.TID 0000.0001) ># Lines beginning "#" are comments
(PID.TID 0000.0001) ># nTx - No. threads per process in X
(PID.TID 0000.0001) ># nTy - No. threads per process in Y
(PID.TID 0000.0001) > &EEPARMS
(PID.TID 0000.0001) > nTx=1,
(PID.TID 0000.0001) > nTy=1,
(PID.TID 0000.0001) > &
(PID.TID 0000.0001) ># Note: Some systems use & as the
(PID.TID 0000.0001) ># namelist terminator. Other systems
(PID.TID 0000.0001) ># use a / character (as shown here).
(PID.TID 0000.0001) 
(PID.TID 0000.0001) // =======================================================
(PID.TID 0000.0001) // Computational Grid Specification ( see files "SIZE.h" )
(PID.TID 0000.0001) //                                  ( and "eedata"       )
(PID.TID 0000.0001) // =======================================================
(PID.TID 0000.0001)      nPx =    1 ; /* No. processes in X */
(PID.TID 0000.0001)      nPy =    1 ; /* No. processes in Y */
(PID.TID 0000.0001)      nSx =    1 ; /* No. tiles in X per process */
(PID.TID 0000.0001)      nSy =    1 ; /* No. tiles in Y per process */
(PID.TID 0000.0001)      sNx =   20 ; /* Tile size in X */
(PID.TID 0000.0001)      sNy =   16 ; /* Tile size in Y */
(PID.TID 0000.0001)      OLx =    3 ; /* Tile overlap distance in X */
(PID.TID 0000.0001)      OLy =    3 ; /* Tile overlap distance in Y */
(PID.TID 0000.0001)      nTx =    1 ; /* No. threads in X per process */
(PID.TID 0000.0001)      nTy =    1 ; /* No. threads in Y per process */
(PID.TID 0000.0001)       Nr =    3 ; /* No. levels in the vertical   */
(PID.TID 0000.0001)       nX =   20 ; /* Total domain size in X ( = nPx*nSx*sNx ) */
(PID.TID 0000.0001)       nY =   16 ; /* Total domain size in Y ( = nPy*nSy*sNy ) */
(PID.TID 0000.0001)   nTiles =    1 ; /* Total no. tiles per process ( = nSx*nSy ) */
(PID.TID 0000.0001)   nProcs =    1 ; /* Total no. processes ( = nPx*nPy ) */
(PID.TID 0000.0001) nThreads =    1 ; /* Total no. threads per process ( = nTx*nTy ) */
(PID.TID 0000.0001) usingMPI =    F ; /* Flag used to control whether MPI is in use */
(PID.TID 0000.0001)                   /*  note: To execute a program with MPI calls */
(PID.TID 0000.0001)                   /*  it must be launched appropriately e.g     */
(PID.TID 0000.0001)                   /*  "mpirun -np 64 ......"                    */
(PID.TID 0000.0001) useCoupler=   F ; /* Flag used to control communications with */
(PID.TID 0000.0001)                   /*  other model components, through a coupler */
(PID.TID 0000.0001) 
(PID.TID 0000.0001) // ======================================================
(PID.TID 0000.0001) // Mapping of tiles to threads
(PID.TID 0000.0001) // ======================================================
(PID.TID 0000.0001) // -o- Thread   1, tiles (   1:   1,   1:   1)
(PID.TID 0000.0001) 
(PID.TID 0000.0001) // ======================================================
(PID.TID 0000.0001) // Tile <-> Tile connectvity table
(PID.TID 0000.0001) // ======================================================
(PID.TID 0000.0001) // Tile number: 000001 (process no. = 000001)
(PID.TID 0000.0001) //        WEST: Tile = 000001, Process = 000001, Comm = put
(PID.TID 0000.0001) //                bi = 000001, bj = 000001
(PID.TID 0000.0001) //        EAST: Tile = 000001, Process = 000001, Comm = put
(PID.TID 0000.0001) //                bi = 000001, bj = 000001
(PID.TID 0000.0001) //       SOUTH: Tile = 000001, Process = 000001, Comm = put
(PID.TID 0000.0001) //                bi = 000001, bj = 000001
(PID.TID 0000.0001) //       NORTH: Tile = 000001, Process = 000001, Comm = put
(PID.TID 0000.0001) //                bi = 000001, bj = 000001
(PID.TID 0000.0001) 
(PID.TID 0000.0001) // =======================================================
(PID.TID 0000.0001) // Model parameter file "data"
(PID.TID 0000.0001) // =======================================================
(PID.TID 0000.0001) ># ====================
(PID.TID 0000.0001) ># | Model parameters |
(PID.TID 0000.0001) ># ====================
(PID.TID 0000.0001) >#
(PID.TID 0000.0001) ># Continuous equation parameters
(PID.TID 0000.0001) >#
(PID.TID 0000.0001) >#   tRef            - Reference vertical potential temperature          (deg C)
(PID.TID 0000.0001) >#   sRef            - Reference vertical salinity                         (PSU)
(PID.TID 0000.0001) >#   viscAh          - Horizontal eddy viscosity coefficient             (m^2/s)
(PID.TID 0000.0001) >#   viscAz          - Vertical eddy viscosity coefficient               (m^2/s)
(PID.TID 0000.0001) >#   diffKhT         - Horizontal temperature diffusivity                (m^2/s)
(PID.TID 0000.0001) >#   diffKzT         - Vertical temperature diffusivity                  (m^2/s)
(PID.TID 0000.0001) >#   diffKhS         - Horizontal salt diffusivity                       (m^2/s)
(PID.TID 0000.0001) >#   diffKzS         - Vertical salt diffusivity                         (m^2/s)
(PID.TID 0000.0001) >#   f0              - Reference coriolis parameter,
(PID.TID 0000.0001) >#                     south edge of f on beta plane                       (1/s)
(PID.TID 0000.0001) >#   beta            - df/dy                                         (s^-1.m^-1)
(PID.TID 0000.0001) >#   tAlpha          - Linear EOS thermal expansion coefficient           (1/oC)
(PID.TID 0000.0001) >#   sBeta           - Linear EOS haline contraction coefficient         (1/ppt)
(PID.TID 0000.0001) >#   gravity         - Acceleration due to gravity                       (m/s^2)
(PID.TID 0000.0001) >#   gBaro           - Accel. due to gravity used in barotropic equation (m/s^2)
(PID.TID 0000.0001) >#   rigidLid        - Set to true to use rigid lid
(PID.TID 0000.0001) >#   implicitFreeSurface - Set to true to use implicit free surface
(PID.TID 0000.0001) >#   eosType         - Flag for linear or polynomial equation of state
(PID.TID 0000.0001) >#   momAdvection    - On/Off flag for momentum self transport
(PID.TID 0000.0001) >#   momViscosity    - On/Off flag for momentum mixing
(PID.TID 0000.0001) >#
(PID.TID 0000.0001) > &PARM01
(PID.TID 0000.0001) > tRef= 3*4.0 ,
(PID.TID 0000.0001) > sRef= 3*34.65,
(PID.TID 0000.0001) > no_slip_sides=.FALSE.,
(PID.TID 0000.0001) > no_slip_bottom=.TRUE.,
(PID.TID 0000.0001) > viscAz=1.93e-5,
(PID.TID 0000.0001) > viscAh=5.E4,
(PID.TID 0000.0001) > diffKhT=0.0,
(PID.TID 0000.0001) > diffKzT=1.46e-5,
(PID.TID 0000.0001) > diffKhS=0.0,
(PID.TID 0000.0001) > diffKzS=1.46e-5,
(PID.TID 0000.0001) > beta=1.E-11,
(PID.TID 0000.0001) > tAlpha=2.E-4,
(PID.TID 0000.0001) > sBeta =7.4E-4,
(PID.TID 0000.0001) > eosType='JMD95Z',
(PID.TID 0000.0001) > saltStepping=.FALSE.,
(PID.TID 0000.0001) > tempStepping=.FALSE.,
(PID.TID 0000.0001) > momStepping=.FALSE.
(PID.TID 0000.0001) > readBinaryPrec=32,
(PID.TID 0000.0001) > writeBinaryPrec=32,
(PID.TID 0000.0001) > globalFiles=.TRUE.,
(PID.TID 0000.0001) > allowFreezing=.FALSE.,
(PID.TID 0000.0001) > HeatCapacity_Cp = 3986.0,
(PID.TID 0000.0001) > gravity         = 9.8156,
(PID.TID 0000.0001) > gBaro           = 9.8156,
(PID.TID 0000.0001) > rhoNil          = 1027.0,
(PID.TID 0000.0001) > &
(PID.TID 0000.0001) >
(PID.TID 0000.0001) ># Elliptic solver parameters
(PID.TID 0000.0001) >#
(PID.TID 0000.0001) >#   cg2dMaxIters       - Maximum number of 2d solver iterations
(PID.TID 0000.0001) >#   cg2dTargetResidual - Solver target residual
(PID.TID 0000.0001) >#
(PID.TID 0000.0001) > &PARM02
(PID.TID 0000.0001) > cg2dMaxIters=500,
(PID.TID 0000.0001) > cg2dTargetResidual=1.D-8
(PID.TID 0000.0001) > &
(PID.TID 0000.0001) >
(PID.TID 0000.0001) ># Time stepping parameters
(PID.TID 0000.0001) >#
(PID.TID 0000.0001) >#   startTime         - Integration starting time                (s)
(PID.TID 0000.0001) >#   endTime           - Integration ending time                  (s)
(PID.TID 0000.0001) >#   tauCD             - CD scheme coupling timescale             (s)
(PID.TID 0000.0001) >#   deltaTMom         - Timestep for momemtum equations          (s)
(PID.TID 0000.0001) >#   deltaTtracer      - Tracer timestep                          (s)
(PID.TID 0000.0001) >#   deltaTClock       - Timestep used as model "clock"           (s)
(PID.TID 0000.0001) >#   abEps             - Adams-Bashforth stabilising factor
(PID.TID 0000.0001) >#   pChkPtFreq        - Frequency of permanent check pointing    (s)
(PID.TID 0000.0001) >#   chkPtFreq         - Frequency of rolling check pointing      (s)
(PID.TID 0000.0001) >#   dumpFreq          - Frequency at which model state is stored (s)
(PID.TID 0000.0001) >#   tauThetaClimRelax - Relaxation to climatology time scale     (s)
(PID.TID 0000.0001) >#   tauSaltClimRelax  - Relaxation to climatology time scale     (s)
(PID.TID 0000.0001) >#
(PID.TID 0000.0001) > &PARM03
(PID.TID 0000.0001) > niter0=0,
(PID.TID 0000.0001) > nTimeSteps=1440,
(PID.TID 0000.0001) > deltaTmom=3600.0,
(PID.TID 0000.0001) > deltaTtracer=3600.0,
(PID.TID 0000.0001) > deltaTClock =3600.0,
(PID.TID 0000.0001) > cAdjFreq=0.,
(PID.TID 0000.0001) > abEps=0.1,
(PID.TID 0000.0001) > forcing_In_AB = .FALSE.,
(PID.TID 0000.0001) ># pChkptFreq=36000.,
(PID.TID 0000.0001) ># chkptFreq= 0.,
(PID.TID 0000.0001) ># dumpFreq = 0.,
(PID.TID 0000.0001) > tavefreq = 864000.,
(PID.TID 0000.0001) > monitorFreq=864000.,
(PID.TID 0000.0001) ># adjDumpFreq=86400.,
(PID.TID 0000.0001) > tauSaltClimRelax = 4142330.,
(PID.TID 0000.0001) > tauThetaClimRelax = 0.,
(PID.TID 0000.0001) > &
(PID.TID 0000.0001) >
(PID.TID 0000.0001) ># Gridding parameters
(PID.TID 0000.0001) >#
(PID.TID 0000.0001) >#   usingSphericalPolarGrid - On/Off flag for spherical polar coordinates
(PID.TID 0000.0001) >#   usingCartesianGrid      - On/Off flag for selecting cartesian coordinates
(PID.TID 0000.0001) >#   delX                    - Zonal grid spacing         (degrees)
(PID.TID 0000.0001) >#   delY                    - Meridional grid spacing    (degrees)
(PID.TID 0000.0001) >#   delZ                    - Vertical grid spacing      (m)
(PID.TID 0000.0001) >#   phiMin                  - Southern boundary latitude (degrees)
(PID.TID 0000.0001) >#
(PID.TID 0000.0001) > &PARM04
(PID.TID 0000.0001) > usingCartesianGrid=.FALSE.,
(PID.TID 0000.0001) > usingSphericalPolarGrid=.TRUE.,
(PID.TID 0000.0001) > delX=20*2.E0,
(PID.TID 0000.0001) > delY=16*2.E0,
(PID.TID 0000.0001) > delZ= 10.,10.,10.,
(PID.TID 0000.0001) > phimin=46.,
(PID.TID 0000.0001) > thetamin=280.,
(PID.TID 0000.0001) > rSphere         = 6371.D3
(PID.TID 0000.0001) > &
(PID.TID 0000.0001) >
(PID.TID 0000.0001) ># Input datasets
(PID.TID 0000.0001) >#
(PID.TID 0000.0001) >#   bathyFile       - File containing bathymetry
(PID.TID 0000.0001) >#   hydrogThetaFile - File containing initial potential temperature data
(PID.TID 0000.0001) >#   hydrogSaltFile  - File containing initial salinity data
(PID.TID 0000.0001) >#   zonalWindFile   - File containing zonal wind data
(PID.TID 0000.0001) >#   meridWindFile   - File containing meridional wind data
(PID.TID 0000.0001) >#   thetaClimFile   - File containing theta climatology used for relaxation
(PID.TID 0000.0001) >#   saltClimFile    - File containing salt climatology used for relaxation
(PID.TID 0000.0001) >#
(PID.TID 0000.0001) > &PARM05
(PID.TID 0000.0001) > bathyFile       = 'bathy.labsea1979',
(PID.TID 0000.0001) > hydrogThetaFile = 'LevCli_temp.labsea1979',
(PID.TID 0000.0001) > hydrogSaltFile  = 'LevCli_salt.labsea1979',
(PID.TID 0000.0001) > &
(PID.TID 0000.0001) >
(PID.TID 0000.0001) 
(PID.TID 0000.0001) S/R INI_PARMS ; starts to read PARM01
(PID.TID 0000.0001) S/R INI_PARMS ; read PARM01 : OK
(PID.TID 0000.0001) S/R INI_PARMS: No request for barotropic solver
(PID.TID 0000.0001) S/R INI_PARMS: => Use implicitFreeSurface as default
(PID.TID 0000.0001) S/R INI_PARMS ; starts to read PARM02
(PID.TID 0000.0001) S/R INI_PARMS ; read PARM02 : OK
(PID.TID 0000.0001) S/R INI_PARMS ; starts to read PARM03
(PID.TID 0000.0001) S/R INI_PARMS ; read PARM03 : OK
(PID.TID 0000.0001) S/R INI_PARMS ; starts to read PARM04
(PID.TID 0000.0001) S/R INI_PARMS ; read PARM04 : OK
(PID.TID 0000.0001) S/R INI_PARMS ; starts to read PARM05
(PID.TID 0000.0001) S/R INI_PARMS ; read PARM05 : OK
(PID.TID 0000.0001)  PACKAGES_BOOT: opening data.pkg
(PID.TID 0000.0001)  OPEN_COPY_DATA_FILE: opening file data.pkg
(PID.TID 0000.0001) // =======================================================
(PID.TID 0000.0001) // Parameter file "data.pkg"
(PID.TID 0000.0001) // =======================================================
(PID.TID 0000.0001) ># Packages
(PID.TID 0000.0001) > &PACKAGES
(PID.TID 0000.0001) >  useEXF    = .TRUE.,
(PID.TID 0000.0001) >  useSEAICE = .TRUE.,
(PID.TID 0000.0001) >  useMNC    = .TRUE.,
(PID.TID 0000.0001) >  useDiagnostics = .TRUE.,
(PID.TID 0000.0001) >&
(PID.TID 0000.0001) 
(PID.TID 0000.0001)  PACKAGES_BOOT: finished reading data.pkg
(PID.TID 0000.0001)  MNC_READPARMS: opening file 'data.mnc'
(PID.TID 0000.0001)  OPEN_COPY_DATA_FILE: opening file data.mnc
(PID.TID 0000.0001) // =======================================================
(PID.TID 0000.0001) // Parameter file "data.mnc"
(PID.TID 0000.0001) // =======================================================
(PID.TID 0000.0001) ># Example "data.mnc" file
(PID.TID 0000.0001) ># Lines beginning "#" are comments
(PID.TID 0000.0001) > &MNC_01
(PID.TID 0000.0001) ># mnc_echo_gvtypes=.FALSE.,
(PID.TID 0000.0001) ># mnc_use_indir=.FALSE.,
(PID.TID 0000.0001) > mnc_use_outdir=.TRUE.,
(PID.TID 0000.0001) > mnc_outdir_str='mnc_test_',
(PID.TID 0000.0001) >#mnc_outdir_date=.TRUE.,
(PID.TID 0000.0001) > monitor_mnc=.FALSE.,
(PID.TID 0000.0001) >#snapshot_mnc=.FALSE.,
(PID.TID 0000.0001) >#timeave_mnc=.FALSE.,
(PID.TID 0000.0001) > pickup_write_mnc=.FALSE.,
(PID.TID 0000.0001) > pickup_read_mnc=.FALSE.,
(PID.TID 0000.0001) > &
(PID.TID 0000.0001) ># Note: Some systems use & as the
(PID.TID 0000.0001) ># namelist terminator. Other systems
(PID.TID 0000.0001) ># use a / character (as shown here).
(PID.TID 0000.0001) 
(PID.TID 0000.0001)  MNC_READPARMS: finished reading data.mnc
(PID.TID 0000.0001) CAL_READPARMS: opening data.cal
(PID.TID 0000.0001)  OPEN_COPY_DATA_FILE: opening file data.cal
(PID.TID 0000.0001) // =======================================================
(PID.TID 0000.0001) // Parameter file "data.cal"
(PID.TID 0000.0001) // =======================================================
(PID.TID 0000.0001) >#
(PID.TID 0000.0001) ># *******************
(PID.TID 0000.0001) ># Calendar Parameters
(PID.TID 0000.0001) ># *******************
(PID.TID 0000.0001) > &CAL_NML
(PID.TID 0000.0001) > TheCalendar='gregorian',
(PID.TID 0000.0001) ># TheCalendar='model',
(PID.TID 0000.0001) > startDate_1=19790101,
(PID.TID 0000.0001) > startDate_2=000000,
(PID.TID 0000.0001) > &
(PID.TID 0000.0001) 
(PID.TID 0000.0001) CAL_READPARMS: finished reading data.cal
(PID.TID 0000.0001) 
(PID.TID 0000.0001) // =======================================================
(PID.TID 0000.0001) // Calendar configuration >>> START <<<
(PID.TID 0000.0001) // =======================================================
(PID.TID 0000.0001) 
(PID.TID 0000.0001) Calendar version: 0.2.0
(PID.TID 0000.0001) 
(PID.TID 0000.0001) startTime =   /* Start time of the model integration [s] */
(PID.TID 0000.0001)                 0.000000000000000E+00
(PID.TID 0000.0001)     ;
(PID.TID 0000.0001) endTime =   /* End time of the model integration [s] */
(PID.TID 0000.0001)                 5.184000000000000E+06
(PID.TID 0000.0001)     ;
(PID.TID 0000.0001) deltatclock =   /* Time interval for a model forward step [s] */
(PID.TID 0000.0001)                 3.600000000000000E+03
(PID.TID 0000.0001)     ;
(PID.TID 0000.0001) usingGregorianCalendar =  /* Calendar Type: Gregorian Calendar */
(PID.TID 0000.0001)                   T
(PID.TID 0000.0001)     ;
(PID.TID 0000.0001) usingJulianCalendar =  /* Calendar Type: Julian Calendar */
(PID.TID 0000.0001)                   F
(PID.TID 0000.0001)     ;
(PID.TID 0000.0001) usingModelCalendar =  /* Calendar Type: Model Calendar */
(PID.TID 0000.0001)                   F
(PID.TID 0000.0001)     ;
(PID.TID 0000.0001) usingNoCalendar =  /* Calendar Type: No Calendar */
(PID.TID 0000.0001)                   F
(PID.TID 0000.0001)     ;
(PID.TID 0000.0001) modelstartdate (YYYYMMDD) =   /* Model start date YYYY-MM-DD  */
(PID.TID 0000.0001)                19790101
(PID.TID 0000.0001)     ;
(PID.TID 0000.0001) modelstartdate (HHMMSS) =   /* Model start date HH-MM-SS  */
(PID.TID 0000.0001)                       0
(PID.TID 0000.0001)     ;
(PID.TID 0000.0001) modelenddate (YYYYMMDD) =   /* Model end date YYYY-MM-DD  */
(PID.TID 0000.0001)                19790302
(PID.TID 0000.0001)     ;
(PID.TID 0000.0001) modelenddate (HHMMSS) =   /* Model end date HH-MM-SS  */
(PID.TID 0000.0001)                       0
(PID.TID 0000.0001)     ;
(PID.TID 0000.0001) intyears =   /* Number of calendar years affected by the integration  */
(PID.TID 0000.0001)                       1
(PID.TID 0000.0001)     ;
(PID.TID 0000.0001) intmonths =   /* Number of calendar months affected by the integration  */
(PID.TID 0000.0001)                       3
(PID.TID 0000.0001)     ;
(PID.TID 0000.0001) intdays =   /* Number of calendar days affected by the integration  */
(PID.TID 0000.0001)                      60
(PID.TID 0000.0001)     ;
(PID.TID 0000.0001) nIter0 =   /* Base timestep number  */
(PID.TID 0000.0001)                       0
(PID.TID 0000.0001)     ;
(PID.TID 0000.0001) nEndIter =   /* Final timestep number  */
(PID.TID 0000.0001)                    1440
(PID.TID 0000.0001)     ;
(PID.TID 0000.0001) nTimeSteps =   /* Number of model timesteps  */
(PID.TID 0000.0001)                    1440
(PID.TID 0000.0001)     ;
(PID.TID 0000.0001) 
(PID.TID 0000.0001) // =======================================================
(PID.TID 0000.0001) // Calendar configuration  >>> END <<<
(PID.TID 0000.0001) // =======================================================
(PID.TID 0000.0001) 
(PID.TID 0000.0001) 
(PID.TID 0000.0001)  SEAICE_READPARMS: opening data.seaice
(PID.TID 0000.0001)  OPEN_COPY_DATA_FILE: opening file data.seaice
(PID.TID 0000.0001) // =======================================================
(PID.TID 0000.0001) // Parameter file "data.seaice"
(PID.TID 0000.0001) // =======================================================
(PID.TID 0000.0001) ># SEAICE parameters
(PID.TID 0000.0001) > &SEAICE_PARM01
(PID.TID 0000.0001) >      SEAICEwriteState   = .TRUE.,
(PID.TID 0000.0001) >      SEAICE_initialHEFF = 1.0,
(PID.TID 0000.0001) >      SEAICE_deltaTtherm = 3600.,
(PID.TID 0000.0001) >      SEAICE_deltaTdyn   = 3600.,
(PID.TID 0000.0001) >      SEAICEuseDYNAMICS  =.FALSE.,
(PID.TID 0000.0001) >      LSR_ERROR          = 1.E-12,
(PID.TID 0000.0001) > &
(PID.TID 0000.0001) >#
(PID.TID 0000.0001) > &SEAICE_PARM02
(PID.TID 0000.0001) > mult_smrarea = 100.0,
(PID.TID 0000.0001) > smrareadatfile = 'icearea_daily92to03_20x16.labsea1979',
(PID.TID 0000.0001) > wsmrarea0 = 0.5,
(PID.TID 0000.0001) > wmean_smrarea = 0.5,
(PID.TID 0000.0001) > smrarea_errfile = ' ',
(PID.TID 0000.0001) 
(PID.TID 0000.0001)  SEAICE_READPARMS: finished reading data.seaice
(PID.TID 0000.0001) 
(PID.TID 0000.0001) // =======================================================
(PID.TID 0000.0001) // Seaice configuration (SEAICE_PARM01) >>> START <<<
(PID.TID 0000.0001) // =======================================================
(PID.TID 0000.0001) 
(PID.TID 0000.0001) SEAICEwriteState  = /* write sea ice state to file */
(PID.TID 0000.0001)                   T
(PID.TID 0000.0001)     ;
(PID.TID 0000.0001) SEAICEuseDYNAMICS = /* use dynamics */
(PID.TID 0000.0001)                   F
(PID.TID 0000.0001)     ;
(PID.TID 0000.0001) usePW79thermodynamics  = /* default 0-layer TD */
(PID.TID 0000.0001)                   T
(PID.TID 0000.0001)     ;
(PID.TID 0000.0001) SEAICEadvHeff = /* advect effective ice thickness */
(PID.TID 0000.0001)                   T
(PID.TID 0000.0001)     ;
(PID.TID 0000.0001) SEAICEadvArea = /* advect fractional ice area */
(PID.TID 0000.0001)                   T
(PID.TID 0000.0001)     ;
(PID.TID 0000.0001) SEAICEadvSnow = /* advect snow layer together with ice */
(PID.TID 0000.0001)                   F
(PID.TID 0000.0001)     ;
(PID.TID 0000.0001) SEAICEuseFlooding = /* turn submerged snow into ice */
(PID.TID 0000.0001)                   F
(PID.TID 0000.0001)     ;
(PID.TID 0000.0001) LAD               = /* time stepping scheme */
(PID.TID 0000.0001)                       2
(PID.TID 0000.0001)     ;
(PID.TID 0000.0001) IMAX_TICE         = /* iterations for ice heat budget */
(PID.TID 0000.0001)                      10
(PID.TID 0000.0001)     ;
(PID.TID 0000.0001) SEAICEadvScheme   = /* advection scheme for thickness */
(PID.TID 0000.0001)                       2
(PID.TID 0000.0001)     ;
(PID.TID 0000.0001) SEAICEuseFluxForm = /* advection in FV flux form */
(PID.TID 0000.0001)                   F
(PID.TID 0000.0001)     ;
(PID.TID 0000.0001) SEAICEadvSchArea   = /* advection scheme for area */
(PID.TID 0000.0001)                       2
(PID.TID 0000.0001)     ;
(PID.TID 0000.0001) SEAICEadvSchHeff   = /* advection scheme for thickness */
(PID.TID 0000.0001)                       2
(PID.TID 0000.0001)     ;
(PID.TID 0000.0001) SEAICE_deltaTtherm= /* thermodynamic timestep */
(PID.TID 0000.0001)                 3.600000000000000E+03
(PID.TID 0000.0001)     ;
(PID.TID 0000.0001) SEAICE_deltaTdyn  = /* dynamic timestep */
(PID.TID 0000.0001)                 3.600000000000000E+03
(PID.TID 0000.0001)     ;
(PID.TID 0000.0001) SEAICE_monFreq  = /* monitor frequency */
(PID.TID 0000.0001)                 8.640000000000000E+05
(PID.TID 0000.0001)     ;
(PID.TID 0000.0001) SEAICE_dumpFreq   = /* dump frequency */
(PID.TID 0000.0001)                 0.000000000000000E+00
(PID.TID 0000.0001)     ;
(PID.TID 0000.0001) SEAICE_taveFreq   = /* time-averaging frequency */
(PID.TID 0000.0001)                 8.640000000000000E+05
(PID.TID 0000.0001)     ;
(PID.TID 0000.0001) SEAICE_mon_stdio  = /* write monitor to std-outp */
(PID.TID 0000.0001)                   T
(PID.TID 0000.0001)     ;
(PID.TID 0000.0001) SEAICE_dump_mdsio = /* write snap-shot   using MDSIO */
(PID.TID 0000.0001)                   F
(PID.TID 0000.0001)     ;
(PID.TID 0000.0001) SEAICE_tave_mdsio = /* write TimeAverage using MDSIO */
(PID.TID 0000.0001)                   F
(PID.TID 0000.0001)     ;
(PID.TID 0000.0001) SEAICE_mon_mnc    = /* write monitor to netcdf file */
(PID.TID 0000.0001)                   F
(PID.TID 0000.0001)     ;
(PID.TID 0000.0001) SEAICE_dump_mnc   = /* write snap-shot   using MNC */
(PID.TID 0000.0001)                   T
(PID.TID 0000.0001)     ;
(PID.TID 0000.0001) SEAICE_tave_mnc   = /* write TimeAverage using MNC */
(PID.TID 0000.0001)                   T
(PID.TID 0000.0001)     ;
(PID.TID 0000.0001) SEAICE_initialHEFF= /* initial sea-ice thickness */
(PID.TID 0000.0001)                 1.000000000000000E+00
(PID.TID 0000.0001)     ;
(PID.TID 0000.0001) SEAICE_drag       = /* air-ice drag coefficient */
(PID.TID 0000.0001)                 2.000000000000000E-03
(PID.TID 0000.0001)     ;
(PID.TID 0000.0001) OCEAN_drag        = /* air-ocean drag coefficient */
(PID.TID 0000.0001)                 1.000000000000000E-03
(PID.TID 0000.0001)     ;
(PID.TID 0000.0001) SEAICE_waterDrag  = /* water-ice drag * density */
(PID.TID 0000.0001)                 5.500000000000000E+00
(PID.TID 0000.0001)     ;
(PID.TID 0000.0001) SEAICE_dryIceAlb  = /* winter albedo */
(PID.TID 0000.0001)                 7.500000000000000E-01
(PID.TID 0000.0001)     ;
(PID.TID 0000.0001) SEAICE_wetIceAlb  = /* summer albedo */
(PID.TID 0000.0001)                 6.600000000000000E-01
(PID.TID 0000.0001)     ;
(PID.TID 0000.0001) SEAICE_drySnowAlb = /* dry snow albedo */
(PID.TID 0000.0001)                 8.400000000000000E-01
(PID.TID 0000.0001)     ;
(PID.TID 0000.0001) SEAICE_wetSnowAlb = /* wet snow albedo */
(PID.TID 0000.0001)                 7.000000000000000E-01
(PID.TID 0000.0001)     ;
(PID.TID 0000.0001) SEAICE_waterAlbedo= /* water albedo */
(PID.TID 0000.0001)                 1.000000000000000E-01
(PID.TID 0000.0001)     ;
(PID.TID 0000.0001) SEAICE_strength   = /* sea-ice strength Pstar */
(PID.TID 0000.0001)                 2.750000000000000E+04
(PID.TID 0000.0001)     ;
(PID.TID 0000.0001) SEAICE_sensHeat   = /* sensible heat transfer */
(PID.TID 0000.0001)                 2.284000000000000E+00
(PID.TID 0000.0001)     ;
(PID.TID 0000.0001) SEAICE_latentWater= /* latent heat transfer for water */
(PID.TID 0000.0001)                 5.687500000000000E+03
(PID.TID 0000.0001)     ;
(PID.TID 0000.0001) SEAICE_latentIce  = /* latent heat transfer for ice */
(PID.TID 0000.0001)                 6.447400000000000E+03
(PID.TID 0000.0001)     ;
(PID.TID 0000.0001) SEAICE_iceConduct = /* sea-ice conductivity */
(PID.TID 0000.0001)                 2.165600000000000E+00
(PID.TID 0000.0001)     ;
(PID.TID 0000.0001) SEAICE_snowConduct= /* snow conductivity */
(PID.TID 0000.0001)                 3.100000000000000E-01
(PID.TID 0000.0001)     ;
(PID.TID 0000.0001) SEAICE_emissivity = /* Stefan-Boltzman * emissivity */
(PID.TID 0000.0001)                 5.500000000000000E-08
(PID.TID 0000.0001)     ;
(PID.TID 0000.0001) SEAICE_snowThick  = /* cutoff snow thickness */
(PID.TID 0000.0001)                 1.500000000000000E-01
(PID.TID 0000.0001)     ;
(PID.TID 0000.0001) SEAICE_shortwave  = /* penetration shortwave radiation */
(PID.TID 0000.0001)                 3.000000000000000E-01
(PID.TID 0000.0001)     ;
(PID.TID 0000.0001) SEAICE_freeze     = /* freezing temp. of sea water */
(PID.TID 0000.0001)                -1.960000000000000E+00
(PID.TID 0000.0001)     ;
(PID.TID 0000.0001) Initial sea-ice concentration is read from file:
(PID.TID 0000.0001)    >>    <<
(PID.TID 0000.0001) Initial sea-ice thickness is read from file:
(PID.TID 0000.0001)    >>    <<
(PID.TID 0000.0001)     ;
(PID.TID 0000.0001) LSR_ERROR         = /* sets accuracy of LSR solver */
(PID.TID 0000.0001)                 1.000000000000000E-12
(PID.TID 0000.0001)     ;
(PID.TID 0000.0001) DIFF1             = /* parameter used in advect.F */
(PID.TID 0000.0001)                 4.000000000000000E-03
(PID.TID 0000.0001)     ;
(PID.TID 0000.0001) A22               = /* parameter used in growth.F */
(PID.TID 0000.0001)                 1.500000000000000E-01
(PID.TID 0000.0001)     ;
(PID.TID 0000.0001) HO                = /* demarcation ice thickness */
(PID.TID 0000.0001)                 5.000000000000000E-01
(PID.TID 0000.0001)     ;
(PID.TID 0000.0001) MAX_HEFF          = /* maximum ice thickness */
(PID.TID 0000.0001)                 1.000000000000000E+01
(PID.TID 0000.0001)     ;
(PID.TID 0000.0001) MIN_ATEMP         = /* minimum air temperature */
(PID.TID 0000.0001)                -5.000000000000000E+01
(PID.TID 0000.0001)     ;
(PID.TID 0000.0001) MIN_LWDOWN        = /* minimum downward longwave */
(PID.TID 0000.0001)                 6.000000000000000E+01
(PID.TID 0000.0001)     ;
(PID.TID 0000.0001) MAX_TICE          = /* maximum ice temperature */
(PID.TID 0000.0001)                 3.000000000000000E+01
(PID.TID 0000.0001)     ;
(PID.TID 0000.0001) MIN_TICE          = /* minimum ice temperature */
(PID.TID 0000.0001)                -5.000000000000000E+01
(PID.TID 0000.0001)     ;
(PID.TID 0000.0001) SEAICE_EPS        = /* reduce derivative singularities */
(PID.TID 0000.0001)                 1.000000000000000E-10
(PID.TID 0000.0001)     ;
(PID.TID 0000.0001) // =======================================================
(PID.TID 0000.0001) // Seaice configuration (SEAICE_PARM01) >>> END <<<
(PID.TID 0000.0001) // =======================================================
(PID.TID 0000.0001) EXF_READPARMS: opening data.exf
(PID.TID 0000.0001)  OPEN_COPY_DATA_FILE: opening file data.exf
(PID.TID 0000.0001) // =======================================================
(PID.TID 0000.0001) // Parameter file "data.exf"
(PID.TID 0000.0001) // =======================================================
(PID.TID 0000.0001) ># $Header: /u/gcmpack/MITgcm/verification/offline_exf_seaice/results/Attic/output.seaicetd.txt,v 1.1 2007/06/23 15:02:21 heimbach Exp $
(PID.TID 0000.0001) >#
(PID.TID 0000.0001) ># *********************
(PID.TID 0000.0001) ># External Forcing Data
(PID.TID 0000.0001) ># *********************
(PID.TID 0000.0001) > &EXF_NML_01
(PID.TID 0000.0001) >#
(PID.TID 0000.0001) > useExfCheckRange  = .TRUE.,
(PID.TID 0000.0001) > repeatPeriod      = 31622400.0,
(PID.TID 0000.0001) > exf_iprec         = 32,
(PID.TID 0000.0001) > exf_yftype        = 'RL',
(PID.TID 0000.0001) >#
(PID.TID 0000.0001) > &
(PID.TID 0000.0001) >
(PID.TID 0000.0001) ># *********************
(PID.TID 0000.0001) > &EXF_NML_02
(PID.TID 0000.0001) >#
(PID.TID 0000.0001) > hfluxstartdate1   = 19781216,
(PID.TID 0000.0001) > hfluxstartdate2   = 180000,
(PID.TID 0000.0001) > hfluxperiod       = 2635200.0,
(PID.TID 0000.0001) >#
(PID.TID 0000.0001) > sfluxstartdate1   = 19781216,
(PID.TID 0000.0001) > sfluxstartdate2   = 180000,
(PID.TID 0000.0001) > sfluxperiod       = 2635200.0,
(PID.TID 0000.0001) >#
(PID.TID 0000.0001) > ustressstartdate1 = 19781216,
(PID.TID 0000.0001) > ustressstartdate2 = 180000,
(PID.TID 0000.0001) > ustressperiod     = 2635200.0,
(PID.TID 0000.0001) >#
(PID.TID 0000.0001) > vstressstartdate1 = 19781216,
(PID.TID 0000.0001) > vstressstartdate2 = 180000,
(PID.TID 0000.0001) > vstressperiod     = 2635200.0,
(PID.TID 0000.0001) >#
(PID.TID 0000.0001) > atempstartdate1   = 19781216,
(PID.TID 0000.0001) > atempstartdate2   = 180000,
(PID.TID 0000.0001) > atempperiod       = 2635200.0,
(PID.TID 0000.0001) >#
(PID.TID 0000.0001) > aqhstartdate1     = 19781216,
(PID.TID 0000.0001) > aqhstartdate2     = 180000,
(PID.TID 0000.0001) > aqhperiod         = 2635200.0,
(PID.TID 0000.0001) >#
(PID.TID 0000.0001) >#evapstartdate1    = 19781216,
(PID.TID 0000.0001) >#evapstartdate2    = 180000,
(PID.TID 0000.0001) >#evapperiod        = 2635200.0,
(PID.TID 0000.0001) >#
(PID.TID 0000.0001) > precipstartdate1  = 19781216,
(PID.TID 0000.0001) > precipstartdate2  = 180000,
(PID.TID 0000.0001) > precipperiod      = 2635200.0,
(PID.TID 0000.0001) >#
(PID.TID 0000.0001) > uwindstartdate1   = 19781216,
(PID.TID 0000.0001) > uwindstartdate2   = 180000,
(PID.TID 0000.0001) > uwindperiod       = 2635200.0,
(PID.TID 0000.0001) >#
(PID.TID 0000.0001) > vwindstartdate1   = 19781216,
(PID.TID 0000.0001) > vwindstartdate2   = 180000,
(PID.TID 0000.0001) > vwindperiod       = 2635200.0,
(PID.TID 0000.0001) >#
(PID.TID 0000.0001) > swfluxstartdate1  = 19781216,
(PID.TID 0000.0001) > swfluxstartdate2  = 180000,
(PID.TID 0000.0001) > swfluxperiod      = 2635200.0,
(PID.TID 0000.0001) >#
(PID.TID 0000.0001) > lwfluxstartdate1  = 19781216,
(PID.TID 0000.0001) > lwfluxstartdate2  = 180000,
(PID.TID 0000.0001) > lwfluxperiod      = 2635200.0,
(PID.TID 0000.0001) >#
(PID.TID 0000.0001) > swdownstartdate1  = 19781216,
(PID.TID 0000.0001) > swdownstartdate2  = 180000,
(PID.TID 0000.0001) > swdownperiod      = 2635200.0,
(PID.TID 0000.0001) >#
(PID.TID 0000.0001) > lwdownstartdate1  = 19781216,
(PID.TID 0000.0001) > lwdownstartdate2  = 180000,
(PID.TID 0000.0001) > lwdownperiod      = 2635200.0,
(PID.TID 0000.0001) >#
(PID.TID 0000.0001) > climsststartdate1  = 19781216,
(PID.TID 0000.0001) > climsststartdate2  = 180000,
(PID.TID 0000.0001) > climsstperiod      = 2635200.0,
(PID.TID 0000.0001) >#
(PID.TID 0000.0001) > climsssstartdate1  = 19781216,
(PID.TID 0000.0001) > climsssstartdate2  = 180000,
(PID.TID 0000.0001) > climsssperiod      = 2635200.0,
(PID.TID 0000.0001) >#
(PID.TID 0000.0001) > hfluxfile         = ' ',
(PID.TID 0000.0001) > sfluxfile         = ' ',
(PID.TID 0000.0001) > ustressfile       = ' ',
(PID.TID 0000.0001) > vstressfile       = ' ',
(PID.TID 0000.0001) > atempfile         = 'tair.labsea1979',
(PID.TID 0000.0001) > aqhfile           = 'qa.labsea1979',
(PID.TID 0000.0001) > uwindfile         = 'u10m.labsea1979',
(PID.TID 0000.0001) > vwindfile         = 'v10m.labsea1979',
(PID.TID 0000.0001) >#evapfile          = 'evap.labsea1979',
(PID.TID 0000.0001) > precipfile        = 'prate.labsea1979',
(PID.TID 0000.0001) > lwfluxfile        = ' ',
(PID.TID 0000.0001) > swfluxfile        = ' ',
(PID.TID 0000.0001) > lwdownfile        = 'flo.labsea1979',
(PID.TID 0000.0001) > swdownfile        = 'fsh.labsea1979',
(PID.TID 0000.0001) > runoffFile        = ' '
(PID.TID 0000.0001) > climsstfile       = 'SST_monthly.labsea1979',
(PID.TID 0000.0001) >### climsssfile       = 'SSS_monthly.labsea1979',
(PID.TID 0000.0001) >#
(PID.TID 0000.0001) > &
(PID.TID 0000.0001) >
(PID.TID 0000.0001) ># *********************
(PID.TID 0000.0001) > &EXF_NML_03
(PID.TID 0000.0001) > &
(PID.TID 0000.0001) >
(PID.TID 0000.0001) ># *********************
(PID.TID 0000.0001) > &EXF_NML_04
(PID.TID 0000.0001) > &
(PID.TID 0000.0001) 
(PID.TID 0000.0001) EXF_READPARMS: reading EXF_NML_01
(PID.TID 0000.0001) EXF_READPARMS: reading EXF_NML_02
(PID.TID 0000.0001) EXF_READPARMS: reading EXF_NML_03
(PID.TID 0000.0001) EXF_READPARMS: reading EXF_NML_04
(PID.TID 0000.0001) EXF_READPARMS: finished reading data.exf
(PID.TID 0000.0001)  DIAGNOSTICS_READPARMS: opening data.diagnostics
(PID.TID 0000.0001)  OPEN_COPY_DATA_FILE: opening file data.diagnostics
(PID.TID 0000.0001) // =======================================================
(PID.TID 0000.0001) // Parameter file "data.diagnostics"
(PID.TID 0000.0001) // =======================================================
(PID.TID 0000.0001) ># Diagnostic Package Choices
(PID.TID 0000.0001) >#-----------------
(PID.TID 0000.0001) ># for each output-stream:
(PID.TID 0000.0001) >#  filename(n) : prefix of the output file name (only 8.c long) for outp.stream n
(PID.TID 0000.0001) >#  frequency(n):< 0 : write snap-shot output every |frequency| seconds
(PID.TID 0000.0001) >#               > 0 : write time-average output every frequency seconds
(PID.TID 0000.0001) >#  timePhase(n)     : write at time = timePhase + multiple of |frequency|
(PID.TID 0000.0001) >#  levels(:,n) : list of levels to write to file (Notes: declared as REAL)
(PID.TID 0000.0001) >#                 when this entry is missing, select all common levels of this list
(PID.TID 0000.0001) >#  fields(:,n) : list of diagnostics fields (8.c) (see "available_diagnostics" file
(PID.TID 0000.0001) >#                 for the list of all available diag. in this particular config)
(PID.TID 0000.0001) >#-----------------
(PID.TID 0000.0001) ># This example dumps all KPP diagnostics as
(PID.TID 0000.0001) ># a snapshot after ten time steps
(PID.TID 0000.0001) > &diagnostics_list
(PID.TID 0000.0001) >#
(PID.TID 0000.0001) >   dumpatlast  = .TRUE.,
(PID.TID 0000.0001) >#
(PID.TID 0000.0001) >  frequency(1) = -36000.,
(PID.TID 0000.0001) >   fields(1,1) = 'EXFtaux ',
(PID.TID 0000.0001) >   filename(1) = 'EXFtaux ',
(PID.TID 0000.0001) >#
(PID.TID 0000.0001) >  frequency(2) = -36000.,
(PID.TID 0000.0001) >   fields(1,2) = 'EXFtauy ',
(PID.TID 0000.0001) >   filename(2) = 'EXFtauy ',
(PID.TID 0000.0001) >#
(PID.TID 0000.0001) >  frequency(3) = -36000.,
(PID.TID 0000.0001) >   fields(1,3) = 'EXFqnet ',
(PID.TID 0000.0001) >   filename(3) = 'EXFqnet ',
(PID.TID 0000.0001) >#
(PID.TID 0000.0001) >  frequency(4) = -36000.,
(PID.TID 0000.0001) >   fields(1,4) = 'EXFempmr',
(PID.TID 0000.0001) >   filename(4) = 'EXFempmr',
(PID.TID 0000.0001) >#
(PID.TID 0000.0001) >  frequency(5) = -36000.,
(PID.TID 0000.0001) >   fields(1,5) = 'EXFhl   ',
(PID.TID 0000.0001) >   filename(5) = 'EXFhl   ',
(PID.TID 0000.0001) >#
(PID.TID 0000.0001) >  frequency(6) = -36000.,
(PID.TID 0000.0001) >   fields(1,6) = 'EXFhs   ',
(PID.TID 0000.0001) >   filename(6) = 'EXFhs   ',
(PID.TID 0000.0001) >#
(PID.TID 0000.0001) >  frequency(7) = -36000.,
(PID.TID 0000.0001) >   fields(1,7) = 'EXFswnet',
(PID.TID 0000.0001) >   filename(7) = 'EXFswnet',
(PID.TID 0000.0001) >#
(PID.TID 0000.0001) >  frequency(8) = -36000.,
(PID.TID 0000.0001) >   fields(1,8) = 'EXFlwnet',
(PID.TID 0000.0001) >   filename(8) = 'EXFlwnet',
(PID.TID 0000.0001) >#
(PID.TID 0000.0001) >  frequency(9) = -36000.,
(PID.TID 0000.0001) >   fields(1,9) = 'EXFuwind',
(PID.TID 0000.0001) >   filename(9) = 'EXFuwind',
(PID.TID 0000.0001) >#
(PID.TID 0000.0001) >  frequency(10) = -36000.,
(PID.TID 0000.0001) >   fields(1,10) = 'EXFvwind',
(PID.TID 0000.0001) >   filename(10) = 'EXFvwind',
(PID.TID 0000.0001) >#
(PID.TID 0000.0001) >  frequency(11) = -36000.,
(PID.TID 0000.0001) >   fields(1,11) = 'EXFatemp',
(PID.TID 0000.0001) >   filename(11) = 'EXFatemp',
(PID.TID 0000.0001) >#
(PID.TID 0000.0001) >  frequency(12) = 36000.,
(PID.TID 0000.0001) >   fields(1,12) = 'SIarea  ',
(PID.TID 0000.0001) >   filename(12) = 'SIarea  ',
(PID.TID 0000.0001) >#
(PID.TID 0000.0001) >  frequency(13) = 36000.,
(PID.TID 0000.0001) >   fields(1,13) = 'SIheff  ',
(PID.TID 0000.0001) >   filename(13) = 'SIheff  ',
(PID.TID 0000.0001) >#
(PID.TID 0000.0001) >  frequency(14) = 36000.,
(PID.TID 0000.0001) >   fields(1,14) = 'SIhsnow ',
(PID.TID 0000.0001) >   filename(14) = 'SIhsnow ',
(PID.TID 0000.0001) >#
(PID.TID 0000.0001) >  frequency(15) = 36000.,
(PID.TID 0000.0001) >   fields(1,15) = 'SIuice  ',
(PID.TID 0000.0001) >   filename(15) = 'SIuice  ',
(PID.TID 0000.0001) >#
(PID.TID 0000.0001) >  frequency(16) = 36000.,
(PID.TID 0000.0001) >   fields(1,16) = 'SIvice  ',
(PID.TID 0000.0001) >   filename(16) = 'SIvice  ',
(PID.TID 0000.0001) >#
(PID.TID 0000.0001) > &
(PID.TID 0000.0001) >
(PID.TID 0000.0001) ># Parameter for Diagnostics of per level statistics:
(PID.TID 0000.0001) >#-----------------
(PID.TID 0000.0001) ># for each output-stream:
(PID.TID 0000.0001) >#  stat_fname(n) : prefix of the output file name (only 8.c long) for outp.stream n
(PID.TID 0000.0001) >#  stat_freq(n):< 0 : write snap-shot output every |stat_freq| seconds
(PID.TID 0000.0001) >#               > 0 : write time-average output every stat_freq seconds
(PID.TID 0000.0001) >#  stat_phase(n)    : write at time = stat_phase + multiple of |stat_freq|
(PID.TID 0000.0001) >#  stat_region(:,n) : list of "regions" (default: 1 region only=global)
(PID.TID 0000.0001) >#  stat_fields(:,n) : list of diagnostics fields (8.c) (see "available_diagnostics.log"
(PID.TID 0000.0001) >#                 file for the list of all available diag. in this particular config)
(PID.TID 0000.0001) >#-----------------
(PID.TID 0000.0001) > &DIAG_STATIS_PARMS
(PID.TID 0000.0001) >#- an example just to check the agreement with MONITOR output:
(PID.TID 0000.0001) >#stat_fields(1,1)= 'ETAN    ','UVEL    ','VVEL    ','WVEL    ', 'THETA   ',
(PID.TID 0000.0001) >#   stat_fname(1)= 'dynStDiag',
(PID.TID 0000.0001) >#    stat_freq(1)= -36000.,
(PID.TID 0000.0001) >#   stat_phase(1)= 0.,
(PID.TID 0000.0001) > &
(PID.TID 0000.0001) >
(PID.TID 0000.0001) 
(PID.TID 0000.0001) S/R DIAGNOSTICS_READPARMS, read namelist "diagnostics_list": start
(PID.TID 0000.0001) S/R DIAGNOSTICS_READPARMS, read namelist "diagnostics_list": OK
(PID.TID 0000.0001) S/R DIAGNOSTICS_READPARMS, read namelist "DIAG_STATIS_PARMS": start
(PID.TID 0000.0001) S/R DIAGNOSTICS_READPARMS, read namelist "DIAG_STATIS_PARMS": OK
(PID.TID 0000.0001) -----------------------------------------------------
(PID.TID 0000.0001)  DIAGNOSTICS_READPARMS: active diagnostics summary:
(PID.TID 0000.0001) -----------------------------------------------------
(PID.TID 0000.0001) Creating Output Stream: EXFtaux
(PID.TID 0000.0001) Output Frequency:    -36000.000000 ; Phase:      18000.000000
(PID.TID 0000.0001)  Averaging Freq.:         0.000000 , Phase:          0.000000 , Cycle:  1
(PID.TID 0000.0001)  Levels:    will be set later
(PID.TID 0000.0001) Fields:    EXFtaux
(PID.TID 0000.0001) Creating Output Stream: EXFtauy
(PID.TID 0000.0001) Output Frequency:    -36000.000000 ; Phase:      18000.000000
(PID.TID 0000.0001)  Averaging Freq.:         0.000000 , Phase:          0.000000 , Cycle:  1
(PID.TID 0000.0001)  Levels:    will be set later
(PID.TID 0000.0001) Fields:    EXFtauy
(PID.TID 0000.0001) Creating Output Stream: EXFqnet
(PID.TID 0000.0001) Output Frequency:    -36000.000000 ; Phase:      18000.000000
(PID.TID 0000.0001)  Averaging Freq.:         0.000000 , Phase:          0.000000 , Cycle:  1
(PID.TID 0000.0001)  Levels:    will be set later
(PID.TID 0000.0001) Fields:    EXFqnet
(PID.TID 0000.0001) Creating Output Stream: EXFempmr
(PID.TID 0000.0001) Output Frequency:    -36000.000000 ; Phase:      18000.000000
(PID.TID 0000.0001)  Averaging Freq.:         0.000000 , Phase:          0.000000 , Cycle:  1
(PID.TID 0000.0001)  Levels:    will be set later
(PID.TID 0000.0001) Fields:    EXFempmr
(PID.TID 0000.0001) Creating Output Stream: EXFhl
(PID.TID 0000.0001) Output Frequency:    -36000.000000 ; Phase:      18000.000000
(PID.TID 0000.0001)  Averaging Freq.:         0.000000 , Phase:          0.000000 , Cycle:  1
(PID.TID 0000.0001)  Levels:    will be set later
(PID.TID 0000.0001) Fields:    EXFhl
(PID.TID 0000.0001) Creating Output Stream: EXFhs
(PID.TID 0000.0001) Output Frequency:    -36000.000000 ; Phase:      18000.000000
(PID.TID 0000.0001)  Averaging Freq.:         0.000000 , Phase:          0.000000 , Cycle:  1
(PID.TID 0000.0001)  Levels:    will be set later
(PID.TID 0000.0001) Fields:    EXFhs
(PID.TID 0000.0001) Creating Output Stream: EXFswnet
(PID.TID 0000.0001) Output Frequency:    -36000.000000 ; Phase:      18000.000000
(PID.TID 0000.0001)  Averaging Freq.:         0.000000 , Phase:          0.000000 , Cycle:  1
(PID.TID 0000.0001)  Levels:    will be set later
(PID.TID 0000.0001) Fields:    EXFswnet
(PID.TID 0000.0001) Creating Output Stream: EXFlwnet
(PID.TID 0000.0001) Output Frequency:    -36000.000000 ; Phase:      18000.000000
(PID.TID 0000.0001)  Averaging Freq.:         0.000000 , Phase:          0.000000 , Cycle:  1
(PID.TID 0000.0001)  Levels:    will be set later
(PID.TID 0000.0001) Fields:    EXFlwnet
(PID.TID 0000.0001) Creating Output Stream: EXFuwind
(PID.TID 0000.0001) Output Frequency:    -36000.000000 ; Phase:      18000.000000
(PID.TID 0000.0001)  Averaging Freq.:         0.000000 , Phase:          0.000000 , Cycle:  1
(PID.TID 0000.0001)  Levels:    will be set later
(PID.TID 0000.0001) Fields:    EXFuwind
(PID.TID 0000.0001) Creating Output Stream: EXFvwind
(PID.TID 0000.0001) Output Frequency:    -36000.000000 ; Phase:      18000.000000
(PID.TID 0000.0001)  Averaging Freq.:         0.000000 , Phase:          0.000000 , Cycle:  1
(PID.TID 0000.0001)  Levels:    will be set later
(PID.TID 0000.0001) Fields:    EXFvwind
(PID.TID 0000.0001) Creating Output Stream: EXFatemp
(PID.TID 0000.0001) Output Frequency:    -36000.000000 ; Phase:      18000.000000
(PID.TID 0000.0001)  Averaging Freq.:         0.000000 , Phase:          0.000000 , Cycle:  1
(PID.TID 0000.0001)  Levels:    will be set later
(PID.TID 0000.0001) Fields:    EXFatemp
(PID.TID 0000.0001) Creating Output Stream: SIarea
(PID.TID 0000.0001) Output Frequency:     36000.000000 ; Phase:          0.000000
(PID.TID 0000.0001)  Averaging Freq.:     36000.000000 , Phase:          0.000000 , Cycle:  1
(PID.TID 0000.0001)  Levels:    will be set later
(PID.TID 0000.0001) Fields:    SIarea
(PID.TID 0000.0001) Creating Output Stream: SIheff
(PID.TID 0000.0001) Output Frequency:     36000.000000 ; Phase:          0.000000
(PID.TID 0000.0001)  Averaging Freq.:     36000.000000 , Phase:          0.000000 , Cycle:  1
(PID.TID 0000.0001)  Levels:    will be set later
(PID.TID 0000.0001) Fields:    SIheff
(PID.TID 0000.0001) Creating Output Stream: SIhsnow
(PID.TID 0000.0001) Output Frequency:     36000.000000 ; Phase:          0.000000
(PID.TID 0000.0001)  Averaging Freq.:     36000.000000 , Phase:          0.000000 , Cycle:  1
(PID.TID 0000.0001)  Levels:    will be set later
(PID.TID 0000.0001) Fields:    SIhsnow
(PID.TID 0000.0001) Creating Output Stream: SIuice
(PID.TID 0000.0001) Output Frequency:     36000.000000 ; Phase:          0.000000
(PID.TID 0000.0001)  Averaging Freq.:     36000.000000 , Phase:          0.000000 , Cycle:  1
(PID.TID 0000.0001)  Levels:    will be set later
(PID.TID 0000.0001) Fields:    SIuice
(PID.TID 0000.0001) Creating Output Stream: SIvice
(PID.TID 0000.0001) Output Frequency:     36000.000000 ; Phase:          0.000000
(PID.TID 0000.0001)  Averaging Freq.:     36000.000000 , Phase:          0.000000 , Cycle:  1
(PID.TID 0000.0001)  Levels:    will be set later
(PID.TID 0000.0001) Fields:    SIvice
(PID.TID 0000.0001) -----------------------------------------------------
(PID.TID 0000.0001)  DIAGNOSTICS_READPARMS: statistics diags. summary:
(PID.TID 0000.0001) -----------------------------------------------------
(PID.TID 0000.0001) 
(PID.TID 0000.0001) SET_PARMS: done
(PID.TID 0000.0001) Enter INI_VERTICAL_GRID: setInterFDr=    T ; setCenterDr=    F
(PID.TID 0000.0001) %MON XC_max                       =   3.1900000000000E+02
(PID.TID 0000.0001) %MON XC_min                       =   2.8100000000000E+02
(PID.TID 0000.0001) %MON XC_mean                      =   3.0000000000000E+02
(PID.TID 0000.0001) %MON XC_sd                        =   1.1532562594671E+01
(PID.TID 0000.0001) %MON XG_max                       =   3.1800000000000E+02
(PID.TID 0000.0001) %MON XG_min                       =   2.8000000000000E+02
(PID.TID 0000.0001) %MON XG_mean                      =   2.9900000000000E+02
(PID.TID 0000.0001) %MON XG_sd                        =   1.1532562594671E+01
(PID.TID 0000.0001) %MON DXC_max                      =   1.5166951523772E+05
(PID.TID 0000.0001) %MON DXC_min                      =   5.0026831972764E+04
(PID.TID 0000.0001) %MON DXC_mean                     =   1.0305926321463E+05
(PID.TID 0000.0001) %MON DXC_sd                       =   3.1375805318756E+04
(PID.TID 0000.0001) %MON DXF_max                      =   1.5166951523772E+05
(PID.TID 0000.0001) %MON DXF_min                      =   5.0026831972764E+04
(PID.TID 0000.0001) %MON DXF_mean                     =   1.0305926321463E+05
(PID.TID 0000.0001) %MON DXF_sd                       =   3.1375805318756E+04
(PID.TID 0000.0001) %MON DXG_max                      =   1.5448497309243E+05
(PID.TID 0000.0001) %MON DXG_min                      =   5.3800974869835E+04
(PID.TID 0000.0001) %MON DXG_mean                     =   1.0642630187324E+05
(PID.TID 0000.0001) %MON DXG_sd                       =   3.1081829200899E+04
(PID.TID 0000.0001) %MON DXV_max                      =   1.5448497309243E+05
(PID.TID 0000.0001) %MON DXV_min                      =   5.3800974869835E+04
(PID.TID 0000.0001) %MON DXV_mean                     =   1.0642630187324E+05
(PID.TID 0000.0001) %MON DXV_sd                       =   3.1081829200899E+04
(PID.TID 0000.0001) %MON YC_max                       =   7.7000000000000E+01
(PID.TID 0000.0001) %MON YC_min                       =   4.7000000000000E+01
(PID.TID 0000.0001) %MON YC_mean                      =   6.2000000000000E+01
(PID.TID 0000.0001) %MON YC_sd                        =   9.2195444572929E+00
(PID.TID 0000.0001) %MON YG_max                       =   7.6000000000000E+01
(PID.TID 0000.0001) %MON YG_min                       =   4.6000000000000E+01
(PID.TID 0000.0001) %MON YG_mean                      =   6.1000000000000E+01
(PID.TID 0000.0001) %MON YG_sd                        =   9.2195444572929E+00
(PID.TID 0000.0001) %MON DYC_max                      =   2.2238985328912E+05
(PID.TID 0000.0001) %MON DYC_min                      =   2.2238985328912E+05
(PID.TID 0000.0001) %MON DYC_mean                     =   2.2238985328912E+05
(PID.TID 0000.0001) %MON DYC_sd                       =   6.1118043959141E-10
(PID.TID 0000.0001) %MON DYF_max                      =   2.2238985328912E+05
(PID.TID 0000.0001) %MON DYF_min                      =   2.2238985328912E+05
(PID.TID 0000.0001) %MON DYF_mean                     =   2.2238985328912E+05
(PID.TID 0000.0001) %MON DYF_sd                       =   6.1118043959141E-10
(PID.TID 0000.0001) %MON DYG_max                      =   2.2238985328912E+05
(PID.TID 0000.0001) %MON DYG_min                      =   2.2238985328912E+05
(PID.TID 0000.0001) %MON DYG_mean                     =   2.2238985328912E+05
(PID.TID 0000.0001) %MON DYG_sd                       =   6.1118043959141E-10
(PID.TID 0000.0001) %MON DYU_max                      =   2.2238985328912E+05
(PID.TID 0000.0001) %MON DYU_min                      =   2.2238985328912E+05
(PID.TID 0000.0001) %MON DYU_mean                     =   2.2238985328912E+05
(PID.TID 0000.0001) %MON DYU_sd                       =   6.1118043959141E-10
(PID.TID 0000.0001) %MON RA_max                       =   3.3728048822756E+10
(PID.TID 0000.0001) %MON RA_min                       =   1.1124894996734E+10
(PID.TID 0000.0001) %MON RA_mean                      =   2.2918170839356E+10
(PID.TID 0000.0001) %MON RA_sd                        =   6.9773064942263E+09
(PID.TID 0000.0001) %MON RAW_max                      =   3.3728048822756E+10
(PID.TID 0000.0001) %MON RAW_min                      =   1.1124894996734E+10
(PID.TID 0000.0001) %MON RAW_mean                     =   2.2918170839356E+10
(PID.TID 0000.0001) %MON RAW_sd                       =   6.9773064942263E+09
(PID.TID 0000.0001) %MON RAS_max                      =   3.4354146294179E+10
(PID.TID 0000.0001) %MON RAS_min                      =   1.1964183470077E+10
(PID.TID 0000.0001) %MON RAS_mean                     =   2.3666928057229E+10
(PID.TID 0000.0001) %MON RAS_sd                       =   6.9119325076329E+09
(PID.TID 0000.0001) %MON RAZ_max                      =   3.4354146294179E+10
(PID.TID 0000.0001) %MON RAZ_min                      =   1.1964183470077E+10
(PID.TID 0000.0001) %MON RAZ_mean                     =   2.3666928057229E+10
(PID.TID 0000.0001) %MON RAZ_sd                       =   6.9119325076329E+09
(PID.TID 0000.0001) %MON AngleCS_max                  =   1.0000000000000E+00
(PID.TID 0000.0001) %MON AngleCS_min                  =   1.0000000000000E+00
(PID.TID 0000.0001) %MON AngleCS_mean                 =   1.0000000000000E+00
(PID.TID 0000.0001) %MON AngleCS_sd                   =   0.0000000000000E+00
(PID.TID 0000.0001) %MON AngleSN_max                  =   0.0000000000000E+00
(PID.TID 0000.0001) %MON AngleSN_min                  =   0.0000000000000E+00
(PID.TID 0000.0001) %MON AngleSN_mean                 =   0.0000000000000E+00
(PID.TID 0000.0001) %MON AngleSN_sd                   =   0.0000000000000E+00
(PID.TID 0000.0001)  MDS_READ_FIELD: opening global file: bathy.labsea1979
(PID.TID 0000.0001) // =======================================================
(PID.TID 0000.0001) // Field Model R_low (ini_masks_etc) at iteration          1
(PID.TID 0000.0001) // CMIN =         -3.000000000000000E+01
(PID.TID 0000.0001) // CMAX =         -3.000000000000000E+01
(PID.TID 0000.0001) // CINT =          0.000000000000000E+00
(PID.TID 0000.0001) // SYMBOLS (CMIN->CMAX): -abcdefghijklmnopqrstuvwxyz+
(PID.TID 0000.0001) //                  0.0: .
(PID.TID 0000.0001) // RANGE I (Lo:Hi:Step):(  -2:  23:   1)
(PID.TID 0000.0001) // RANGE J (Lo:Hi:Step):(  19:  -2:  -1)
(PID.TID 0000.0001) // RANGE K (Lo:Hi:Step):(   1:   1:   1)
(PID.TID 0000.0001) // =======================================================
(PID.TID 0000.0001) // =======================================================
(PID.TID 0000.0001) // END OF FIELD                                          =
(PID.TID 0000.0001) // =======================================================
(PID.TID 0000.0001) 
(PID.TID 0000.0001) // =======================================================
(PID.TID 0000.0001) // Field Model Ro_surf (ini_masks_etc) at iteration          1
(PID.TID 0000.0001) // CMIN =          1.000000000000000E+32
(PID.TID 0000.0001) // CMAX =         -1.000000000000000E+32
(PID.TID 0000.0001) // CINT =          0.000000000000000E+00
(PID.TID 0000.0001) // SYMBOLS (CMIN->CMAX): -abcdefghijklmnopqrstuvwxyz+
(PID.TID 0000.0001) //                  0.0: .
(PID.TID 0000.0001) // RANGE I (Lo:Hi:Step):(  -2:  23:   1)
(PID.TID 0000.0001) // RANGE J (Lo:Hi:Step):(  19:  -2:  -1)
(PID.TID 0000.0001) // RANGE K (Lo:Hi:Step):(   1:   1:   1)
(PID.TID 0000.0001) // =======================================================
(PID.TID 0000.0001) // =======================================================
(PID.TID 0000.0001) // END OF FIELD                                          =
(PID.TID 0000.0001) // =======================================================
(PID.TID 0000.0001) 
(PID.TID 0000.0001) // =======================================================
(PID.TID 0000.0001) // Field hFacC at iteration          1
(PID.TID 0000.0001) // CMIN =          1.000000000000000E+00
(PID.TID 0000.0001) // CMAX =          1.000000000000000E+00
(PID.TID 0000.0001) // CINT =          0.000000000000000E+00
(PID.TID 0000.0001) // SYMBOLS (CMIN->CMAX): -abcdefghijklmnopqrstuvwxyz+
(PID.TID 0000.0001) //                  0.0: .
(PID.TID 0000.0001) // RANGE I (Lo:Hi:Step):(  -2:  23:   1)
(PID.TID 0000.0001) // RANGE J (Lo:Hi:Step):(  19:  -2:  -1)
(PID.TID 0000.0001) // RANGE K (Lo:Hi:Step):(   1:   1:   1)
(PID.TID 0000.0001) // =======================================================
(PID.TID 0000.0001) // =======================================================
(PID.TID 0000.0001) // END OF FIELD                                          =
(PID.TID 0000.0001) // =======================================================
(PID.TID 0000.0001) 
(PID.TID 0000.0001) // =======================================================
(PID.TID 0000.0001) // Field hFacW at iteration          1
(PID.TID 0000.0001) // CMIN =          1.000000000000000E+00
(PID.TID 0000.0001) // CMAX =          1.000000000000000E+00
(PID.TID 0000.0001) // CINT =          0.000000000000000E+00
(PID.TID 0000.0001) // SYMBOLS (CMIN->CMAX): -abcdefghijklmnopqrstuvwxyz+
(PID.TID 0000.0001) //                  0.0: .
(PID.TID 0000.0001) // RANGE I (Lo:Hi:Step):(  -2:  23:   1)
(PID.TID 0000.0001) // RANGE J (Lo:Hi:Step):(  19:  -2:  -1)
(PID.TID 0000.0001) // RANGE K (Lo:Hi:Step):(   1:   1:   1)
(PID.TID 0000.0001) // =======================================================
(PID.TID 0000.0001) // =======================================================
(PID.TID 0000.0001) // END OF FIELD                                          =
(PID.TID 0000.0001) // =======================================================
(PID.TID 0000.0001) 
(PID.TID 0000.0001) // =======================================================
(PID.TID 0000.0001) // Field hFacS at iteration          1
(PID.TID 0000.0001) // CMIN =          1.000000000000000E+00
(PID.TID 0000.0001) // CMAX =          1.000000000000000E+00
(PID.TID 0000.0001) // CINT =          0.000000000000000E+00
(PID.TID 0000.0001) // SYMBOLS (CMIN->CMAX): -abcdefghijklmnopqrstuvwxyz+
(PID.TID 0000.0001) //                  0.0: .
(PID.TID 0000.0001) // RANGE I (Lo:Hi:Step):(  -2:  23:   1)
(PID.TID 0000.0001) // RANGE J (Lo:Hi:Step):(  19:  -2:  -1)
(PID.TID 0000.0001) // RANGE K (Lo:Hi:Step):(   1:   1:   1)
(PID.TID 0000.0001) // =======================================================
(PID.TID 0000.0001) // =======================================================
(PID.TID 0000.0001) // END OF FIELD                                          =
(PID.TID 0000.0001) // =======================================================
(PID.TID 0000.0001) 
(PID.TID 0000.0001) 
(PID.TID 0000.0001) // ===================================
(PID.TID 0000.0001) // GAD parameters :
(PID.TID 0000.0001) // ===================================
(PID.TID 0000.0001) tempAdvScheme =   /* Temp. Horiz.Advection scheme selector */
(PID.TID 0000.0001)                       2
(PID.TID 0000.0001)     ;
(PID.TID 0000.0001) tempVertAdvScheme =   /* Temp. Vert. Advection scheme selector */
(PID.TID 0000.0001)                       2
(PID.TID 0000.0001)     ;
(PID.TID 0000.0001) tempMultiDimAdvec =   /* use Muti-Dim Advec method for Temp */
(PID.TID 0000.0001)                   F
(PID.TID 0000.0001)     ;
(PID.TID 0000.0001) tempSOM_Advection = /* use 2nd Order Moment Advection for Temp */
(PID.TID 0000.0001)                   F
(PID.TID 0000.0001)     ;
(PID.TID 0000.0001) AdamsBashforthGt = /* apply Adams-Bashforth extrapolation on Gt */
(PID.TID 0000.0001)                   F
(PID.TID 0000.0001)     ;
(PID.TID 0000.0001) AdamsBashforth_T = /* apply Adams-Bashforth extrapolation on Temp */
(PID.TID 0000.0001)                   F
(PID.TID 0000.0001)     ;
(PID.TID 0000.0001) saltAdvScheme =   /* Salt. Horiz.advection scheme selector */
(PID.TID 0000.0001)                       2
(PID.TID 0000.0001)     ;
(PID.TID 0000.0001) saltVertAdvScheme =   /* Salt. Vert. Advection scheme selector */
(PID.TID 0000.0001)                       2
(PID.TID 0000.0001)     ;
(PID.TID 0000.0001) saltMultiDimAdvec =   /* use Muti-Dim Advec method for Salt */
(PID.TID 0000.0001)                   F
(PID.TID 0000.0001)     ;
(PID.TID 0000.0001) saltSOM_Advection = /* use 2nd Order Moment Advection for Salt */
(PID.TID 0000.0001)                   F
(PID.TID 0000.0001)     ;
(PID.TID 0000.0001) AdamsBashforthGs = /* apply Adams-Bashforth extrapolation on Gs */
(PID.TID 0000.0001)                   F
(PID.TID 0000.0001)     ;
(PID.TID 0000.0001) AdamsBashforth_S = /* apply Adams-Bashforth extrapolation on Salt */
(PID.TID 0000.0001)                   F
(PID.TID 0000.0001)     ;
(PID.TID 0000.0001) // ===================================
(PID.TID 0000.0001) 
(PID.TID 0000.0001) // =======================================================
(PID.TID 0000.0001) // External forcing configuration >>> START <<<
(PID.TID 0000.0001) // =======================================================
(PID.TID 0000.0001) 
(PID.TID 0000.0001)  EXF general parameters:
(PID.TID 0000.0001) 
(PID.TID 0000.0001) exf_yftype =  /* ? */
(PID.TID 0000.0001)               'RL'
(PID.TID 0000.0001)     ;
(PID.TID 0000.0001) exf_iprec = /* exf file precision */
(PID.TID 0000.0001)                      32
(PID.TID 0000.0001)     ;
(PID.TID 0000.0001) useExfYearlyFields = /* add extension _YEAR to input file names */
(PID.TID 0000.0001)                   F
(PID.TID 0000.0001)     ;
(PID.TID 0000.0001) twoDigitYear = /* use 2-digit year extension */
(PID.TID 0000.0001)                   F
(PID.TID 0000.0001)     ;
(PID.TID 0000.0001) useExfCheckRange = /* check for fields range */
(PID.TID 0000.0001)                   T
(PID.TID 0000.0001)     ;
(PID.TID 0000.0001) exf_monFreq = /* EXF monitor frequency [ s ] */
(PID.TID 0000.0001)                 8.640000000000000E+05
(PID.TID 0000.0001)     ;
(PID.TID 0000.0001) repeatPeriod = /* period for cycling forcing dataset [ s ] */
(PID.TID 0000.0001)                 3.162240000000000E+07
(PID.TID 0000.0001)     ;
(PID.TID 0000.0001) climTempFreeze= /* Minimum climatological temperature [deg.C] */
(PID.TID 0000.0001)                -1.900000000000000E+00
(PID.TID 0000.0001)     ;
(PID.TID 0000.0001) windStressMax = /* Maximum absolute windstress [ Pa ] */
(PID.TID 0000.0001)                 2.000000000000000E+00
(PID.TID 0000.0001)     ;
(PID.TID 0000.0001) stressIsOnCgrid = /* set u,v_stress on Arakawa C-grid */
(PID.TID 0000.0001)                   F
(PID.TID 0000.0001)     ;
(PID.TID 0000.0001) cen2kel = /* conversion of deg. Centigrade to Kelvin [K] */
(PID.TID 0000.0001)                 2.731500000000000E+02
(PID.TID 0000.0001)     ;
(PID.TID 0000.0001) gravity_mks= /* gravitational acceleration [m/s^2] */
(PID.TID 0000.0001)                 9.810000000000000E+00
(PID.TID 0000.0001)     ;
(PID.TID 0000.0001) atmrho =  /* mean atmospheric density [kg/m^3] */
(PID.TID 0000.0001)                 1.200000000000000E+00
(PID.TID 0000.0001)     ;
(PID.TID 0000.0001) atmcp =  /* mean atmospheric specific heat [J/kg/K] */
(PID.TID 0000.0001)                 1.005000000000000E+03
(PID.TID 0000.0001)     ;
(PID.TID 0000.0001) flamb =  /* latent heat of evaporation [J/kg] */
(PID.TID 0000.0001)                 2.500000000000000E+06
(PID.TID 0000.0001)     ;
(PID.TID 0000.0001) flami =  /* latent heat of pure-ice melting [J/kg] */
(PID.TID 0000.0001)                 3.340000000000000E+05
(PID.TID 0000.0001)     ;
(PID.TID 0000.0001) cvapor_fac = /* const. for Saturation calculation [?] */
(PID.TID 0000.0001)                 6.403800000000000E+05
(PID.TID 0000.0001)     ;
(PID.TID 0000.0001) cvapor_exp = /* const. for Saturation calculation [?] */
(PID.TID 0000.0001)                 5.107400000000000E+03
(PID.TID 0000.0001)     ;
(PID.TID 0000.0001) cvapor_fac_ice= /* const. for Saturation calculation [?] */
(PID.TID 0000.0001)                 1.163780000000000E+07
(PID.TID 0000.0001)     ;
(PID.TID 0000.0001) cvapor_exp_ice= /* const. for Saturation calculation [?] */
(PID.TID 0000.0001)                 5.897800000000000E+03
(PID.TID 0000.0001)     ;
(PID.TID 0000.0001) humid_fac = /* humidity coef. in virtual temp. [(kg/kg)^-1] */
(PID.TID 0000.0001)                 6.060000000000000E-01
(PID.TID 0000.0001)     ;
(PID.TID 0000.0001) gamma_blk = /* adiabatic lapse rate [?] */
(PID.TID 0000.0001)                 1.000000000000000E-02
(PID.TID 0000.0001)     ;
(PID.TID 0000.0001) saltsat = /* reduction of Qsat over salty water [-] */
(PID.TID 0000.0001)                 9.800000000000000E-01
(PID.TID 0000.0001)     ;
(PID.TID 0000.0001) cDrag_1 = /* coef used in drag calculation [?] */
(PID.TID 0000.0001)                 2.700000000000000E-03
(PID.TID 0000.0001)     ;
(PID.TID 0000.0001) cDrag_2 = /* coef used in drag calculation [?] */
(PID.TID 0000.0001)                 1.420000000000000E-04
(PID.TID 0000.0001)     ;
(PID.TID 0000.0001) cDrag_3 = /* coef used in drag calculation [?] */
(PID.TID 0000.0001)                 7.640000000000000E-05
(PID.TID 0000.0001)     ;
(PID.TID 0000.0001) cStanton_1 = /* coef used in Stanton number calculation [?] */
(PID.TID 0000.0001)                 3.270000000000000E-02
(PID.TID 0000.0001)     ;
(PID.TID 0000.0001) cStanton_2 = /* coef used in Stanton number calculation [?] */
(PID.TID 0000.0001)                 1.800000000000000E-02
(PID.TID 0000.0001)     ;
(PID.TID 0000.0001) cDalton = /* coef used in Dalton number calculation [?] */
(PID.TID 0000.0001)                 3.460000000000000E-02
(PID.TID 0000.0001)     ;
(PID.TID 0000.0001) exf_scal_BulkCdn= /* Drag coefficient scaling factor [-] */
(PID.TID 0000.0001)                 1.000000000000000E+00
(PID.TID 0000.0001)     ;
(PID.TID 0000.0001) zolmin = /* minimum stability parameter [?] */
(PID.TID 0000.0001)                -1.000000000000000E+02
(PID.TID 0000.0001)     ;
(PID.TID 0000.0001) psim_fac = /* coef used in turbulent fluxes calculation [-] */
(PID.TID 0000.0001)                 5.000000000000000E+00
(PID.TID 0000.0001)     ;
(PID.TID 0000.0001) zref =  /* reference height [ m ] */
(PID.TID 0000.0001)                 1.000000000000000E+01
(PID.TID 0000.0001)     ;
(PID.TID 0000.0001) hu =  /* height of mean wind [ m ] */
(PID.TID 0000.0001)                 1.000000000000000E+01
(PID.TID 0000.0001)     ;
(PID.TID 0000.0001) ht =  /* height of mean temperature [ m ] */
(PID.TID 0000.0001)                 2.000000000000000E+00
(PID.TID 0000.0001)     ;
(PID.TID 0000.0001) hq =  /* height of mean spec.humidity [ m ] */
(PID.TID 0000.0001)                 2.000000000000000E+00
(PID.TID 0000.0001)     ;
(PID.TID 0000.0001) uMin = /* minimum wind speed [m/s] */
(PID.TID 0000.0001)                 5.000000000000000E-01
(PID.TID 0000.0001)     ;
(PID.TID 0000.0001) useStabilityFct_overIce= /* transfert Coeffs over sea-ice depend on stability */
(PID.TID 0000.0001)                   F
(PID.TID 0000.0001)     ;
(PID.TID 0000.0001) exf_iceCd = /* drag coefficient over sea-ice (fixed) [-] */
(PID.TID 0000.0001)                 1.630000000000000E-03
(PID.TID 0000.0001)     ;
(PID.TID 0000.0001) exf_iceCe = /* transfert coeff. over sea-ice, for Evap (fixed) [-] */
(PID.TID 0000.0001)                 1.630000000000000E-03
(PID.TID 0000.0001)     ;
(PID.TID 0000.0001) exf_iceCh = /* transfert coeff. over sea-ice, Sens.Heat.(fixed)[-] */
(PID.TID 0000.0001)                 1.630000000000000E-03
(PID.TID 0000.0001)     ;
(PID.TID 0000.0001) exf_albedo =  /* Sea-water albedo [-] */
(PID.TID 0000.0001)                 1.000000000000000E-01
(PID.TID 0000.0001)     ;
(PID.TID 0000.0001) ocean_emissivity = /* longwave ocean-surface emissivity [-] */
(PID.TID 0000.0001)                 9.700176366843034E-01
(PID.TID 0000.0001)     ;
(PID.TID 0000.0001) ice_emissivity = /* longwave seaice emissivity [-] */
(PID.TID 0000.0001)                 9.500000000000000E-01
(PID.TID 0000.0001)     ;
(PID.TID 0000.0001) snow_emissivity = /* longwave snow  emissivity [-] */
(PID.TID 0000.0001)                 9.500000000000000E-01
(PID.TID 0000.0001)     ;
(PID.TID 0000.0001) 
(PID.TID 0000.0001)  EXF main CPP flags:
(PID.TID 0000.0001) 
(PID.TID 0000.0001) // ALLOW_ATM_TEMP:                     defined
(PID.TID 0000.0001) // ALLOW_ATM_WIND:                     defined
(PID.TID 0000.0001) // ALLOW_DOWNWARD_RADIATION:           defined
(PID.TID 0000.0001) // ALLOW_BULKFORMULAE:                 defined
(PID.TID 0000.0001) 
(PID.TID 0000.0001)    Net shortwave flux forcing starts at                0.
(PID.TID 0000.0001)    Net shortwave flux forcing period is          2635200.
(PID.TID 0000.0001)    Net shortwave flux forcing is read from file:
(PID.TID 0000.0001)    >>    <<
(PID.TID 0000.0001) 
(PID.TID 0000.0001)    Zonal wind forcing starts at                   -1317600.
(PID.TID 0000.0001)    Zonal wind forcing period is                    2635200.
(PID.TID 0000.0001)    Zonal wind forcing is read from file:
(PID.TID 0000.0001)    >>  u10m.labsea1979  <<
(PID.TID 0000.0001) 
(PID.TID 0000.0001)    Meridional wind forcing starts at              -1317600.
(PID.TID 0000.0001)    Meridional wind forcing period is               2635200.
(PID.TID 0000.0001)    Meridional wind forcing is read from file:
(PID.TID 0000.0001)    >>  v10m.labsea1979  <<
(PID.TID 0000.0001) 
(PID.TID 0000.0001)    Atmospheric temperature starts at              -1317600.
(PID.TID 0000.0001)    Atmospheric temperature period is               2635200.
(PID.TID 0000.0001)    Atmospheric temperature is read from file:
(PID.TID 0000.0001)    >>  tair.labsea1979  <<
(PID.TID 0000.0001) 
(PID.TID 0000.0001)    Atmospheric specific humidity starts at        -1317600.
(PID.TID 0000.0001)    Atmospheric specific humidity period is         2635200.
(PID.TID 0000.0001)    Atmospheric specific humidity is read from file:
(PID.TID 0000.0001)    >>  qa.labsea1979  <<
(PID.TID 0000.0001) 
(PID.TID 0000.0001)    Net longwave flux forcing starts at                 0.
(PID.TID 0000.0001)    Net longwave flux forcing period is           2635200.
(PID.TID 0000.0001)    Net longwave flux forcing is read from file:
(PID.TID 0000.0001)    >>    <<
(PID.TID 0000.0001) 
(PID.TID 0000.0001)    Precipitation data set starts at               -1317600.
(PID.TID 0000.0001)    Precipitation data period is                    2635200.
(PID.TID 0000.0001)    Precipitation data is read from file:
(PID.TID 0000.0001)    >>  prate.labsea1979  <<
(PID.TID 0000.0001) 
(PID.TID 0000.0001) // EXF_READ_EVAP:                  NOT defined
(PID.TID 0000.0001) 
(PID.TID 0000.0001) // ALLOW_RUNOFF:                       defined
(PID.TID 0000.0001)    Runnoff starts at               0.
(PID.TID 0000.0001)    Runoff period is               0.
(PID.TID 0000.0001)    Runoff is read from file:
(PID.TID 0000.0001)    >>    <<
(PID.TID 0000.0001) 
(PID.TID 0000.0001) // =======================================================
(PID.TID 0000.0001) // External forcing configuration  >>> END <<<
(PID.TID 0000.0001) // =======================================================
(PID.TID 0000.0001) 
(PID.TID 0000.0001) 
(PID.TID 0000.0001) // =======================================================
(PID.TID 0000.0001) // External forcing climatology configuration >>> START <<<
(PID.TID 0000.0001) // =======================================================
(PID.TID 0000.0001) 
(PID.TID 0000.0001) // ALLOW_CLIMSST_RELAXATION:           defined
(PID.TID 0000.0001) // ALLOW_CLIMSSS_RELAXATION:           defined
(PID.TID 0000.0001) 
(PID.TID 0000.0001)    Climatological SST starts at            -1317600.
(PID.TID 0000.0001)    Climatological SST period is             2635200.
(PID.TID 0000.0001)    Climatological SST is read from file:
(PID.TID 0000.0001)    >>  SST_monthly.labsea1979  <<
(PID.TID 0000.0001) 
(PID.TID 0000.0001)    Climatological SSS starts at                   0.
(PID.TID 0000.0001)    Climatological SSS period is             2635200.
(PID.TID 0000.0001)    Climatological SSS is read from file:
(PID.TID 0000.0001)    >>    <<
(PID.TID 0000.0001) 
(PID.TID 0000.0001) // =======================================================
(PID.TID 0000.0001) // External forcing climatology configuration  >>> END <<<
(PID.TID 0000.0001) // =======================================================
(PID.TID 0000.0001) 
(PID.TID 0000.0001) ------------------------------------------------------------
(PID.TID 0000.0001) DIAGNOSTICS_SET_LEVELS: done
(PID.TID 0000.0001)  Total Nb of available Diagnostics: ndiagt= 144
(PID.TID 0000.0001)  write list of available Diagnostics to file: available_diagnostics.log
(PID.TID 0000.0001) SETDIAG: Allocate  1 x  1 Levels for Diagnostic # 115 EXFtaux
(PID.TID 0000.0001) SETDIAG: Allocate  1 x  1 Levels for Diagnostic # 116 EXFtauy
(PID.TID 0000.0001) SETDIAG: Allocate  1 x  1 Levels for Diagnostic # 114 EXFqnet
(PID.TID 0000.0001) SETDIAG: Allocate  1 x  1 Levels for Diagnostic # 125 EXFempmr
(PID.TID 0000.0001) SETDIAG: Allocate  1 x  1 Levels for Diagnostic # 109 EXFhl
(PID.TID 0000.0001) SETDIAG: Allocate  1 x  1 Levels for Diagnostic # 108 EXFhs
(PID.TID 0000.0001) SETDIAG: Allocate  1 x  1 Levels for Diagnostic # 111 EXFswnet
(PID.TID 0000.0001) SETDIAG: Allocate  1 x  1 Levels for Diagnostic # 110 EXFlwnet
(PID.TID 0000.0001) SETDIAG: Allocate  1 x  1 Levels for Diagnostic # 117 EXFuwind
(PID.TID 0000.0001) SETDIAG: Allocate  1 x  1 Levels for Diagnostic # 118 EXFvwind
(PID.TID 0000.0001) SETDIAG: Allocate  1 x  1 Levels for Diagnostic # 120 EXFatemp
(PID.TID 0000.0001) SETDIAG: Allocate  1 x  1 Levels for Diagnostic # 127 SIarea
(PID.TID 0000.0001) SETDIAG: Allocate  1 x  1 Levels for Diagnostic # 128 SIheff
(PID.TID 0000.0001) SETDIAG: Allocate  1 x  1 Levels for Diagnostic # 131 SIhsnow
(PID.TID 0000.0001) SETDIAG: Allocate  1 x  1 Levels for Diagnostic # 129 SIuice
(PID.TID 0000.0001) SETDIAG: Allocate  1 x  1 Levels for Diagnostic # 130 SIvice
(PID.TID 0000.0001)   space allocated for all diagnostics:    16 levels
(PID.TID 0000.0001) DIAGNOSTICS_SET_POINTERS: Set levels for Outp.Stream: EXFtaux
(PID.TID 0000.0001)  Levels:       1.
(PID.TID 0000.0001) DIAGNOSTICS_SET_POINTERS: Set levels for Outp.Stream: EXFtauy
(PID.TID 0000.0001)  Levels:       1.
(PID.TID 0000.0001) DIAGNOSTICS_SET_POINTERS: Set levels for Outp.Stream: EXFqnet
(PID.TID 0000.0001)  Levels:       1.
(PID.TID 0000.0001) DIAGNOSTICS_SET_POINTERS: Set levels for Outp.Stream: EXFempmr
(PID.TID 0000.0001)  Levels:       1.
(PID.TID 0000.0001) DIAGNOSTICS_SET_POINTERS: Set levels for Outp.Stream: EXFhl
(PID.TID 0000.0001)  Levels:       1.
(PID.TID 0000.0001) DIAGNOSTICS_SET_POINTERS: Set levels for Outp.Stream: EXFhs
(PID.TID 0000.0001)  Levels:       1.
(PID.TID 0000.0001) DIAGNOSTICS_SET_POINTERS: Set levels for Outp.Stream: EXFswnet
(PID.TID 0000.0001)  Levels:       1.
(PID.TID 0000.0001) DIAGNOSTICS_SET_POINTERS: Set levels for Outp.Stream: EXFlwnet
(PID.TID 0000.0001)  Levels:       1.
(PID.TID 0000.0001) DIAGNOSTICS_SET_POINTERS: Set levels for Outp.Stream: EXFuwind
(PID.TID 0000.0001)  Levels:       1.
(PID.TID 0000.0001) DIAGNOSTICS_SET_POINTERS: Set levels for Outp.Stream: EXFvwind
(PID.TID 0000.0001)  Levels:       1.
(PID.TID 0000.0001) DIAGNOSTICS_SET_POINTERS: Set levels for Outp.Stream: EXFatemp
(PID.TID 0000.0001)  Levels:       1.
(PID.TID 0000.0001) DIAGNOSTICS_SET_POINTERS: Set levels for Outp.Stream: SIarea
(PID.TID 0000.0001)  Levels:       1.
(PID.TID 0000.0001) DIAGNOSTICS_SET_POINTERS: Set levels for Outp.Stream: SIheff
(PID.TID 0000.0001)  Levels:       1.
(PID.TID 0000.0001) DIAGNOSTICS_SET_POINTERS: Set levels for Outp.Stream: SIhsnow
(PID.TID 0000.0001)  Levels:       1.
(PID.TID 0000.0001) DIAGNOSTICS_SET_POINTERS: Set levels for Outp.Stream: SIuice
(PID.TID 0000.0001)  Levels:       1.
(PID.TID 0000.0001) DIAGNOSTICS_SET_POINTERS: Set levels for Outp.Stream: SIvice
(PID.TID 0000.0001)  Levels:       1.
(PID.TID 0000.0001) DIAGNOSTICS_SET_POINTERS: done
(PID.TID 0000.0001) ------------------------------------------------------------
(PID.TID 0000.0001) DIAGSTATS_SET_REGIONS: define no region
(PID.TID 0000.0001) ------------------------------------------------------------
(PID.TID 0000.0001)   space allocated for all stats-diags:     0 levels
(PID.TID 0000.0001) DIAGSTATS_SET_POINTERS: done
(PID.TID 0000.0001) ------------------------------------------------------------
(PID.TID 0000.0001) SEAICE_CHECK: #define ALLOW_SEAICE
(PID.TID 0000.0001) %MON fCori_max                    =   1.4210453727344E-04
(PID.TID 0000.0001) %MON fCori_min                    =   1.0666243053630E-04
(PID.TID 0000.0001) %MON fCori_mean                   =   1.2711058365303E-04
(PID.TID 0000.0001) %MON fCori_sd                     =   1.1031533875266E-05
(PID.TID 0000.0001) %MON fCoriG_max                   =   1.4151032568025E-04
(PID.TID 0000.0001) %MON fCoriG_min                   =   1.0491029349513E-04
(PID.TID 0000.0001) %MON fCoriG_mean                  =   1.2591168756569E-04
(PID.TID 0000.0001) %MON fCoriG_sd                    =   1.1383815633153E-05
(PID.TID 0000.0001) %MON fCoriCos_max                 =   9.9464325599212E-05
(PID.TID 0000.0001) %MON fCoriCos_min                 =   3.2807417471054E-05
(PID.TID 0000.0001) %MON fCoriCos_mean                =   6.7585896192312E-05
(PID.TID 0000.0001) %MON fCoriCos_sd                  =   2.0576140902612E-05
(PID.TID 0000.0001) INI_CG2D: CG2D normalisation factor =  7.4983684781288300E-03
(PID.TID 0000.0001) 
(PID.TID 0000.0001) CONFIG_CHECK: OK
(PID.TID 0000.0001) // =======================================================
(PID.TID 0000.0001) // Model configuration
(PID.TID 0000.0001) // =======================================================
(PID.TID 0000.0001) //
(PID.TID 0000.0001) // "Physical" paramters ( PARM01 in namelist )
(PID.TID 0000.0001) //
(PID.TID 0000.0001) buoyancyRelation = /* Type of relation to get Buoyancy */
(PID.TID 0000.0001)               'OCEANIC'
(PID.TID 0000.0001)     ;
(PID.TID 0000.0001) fluidIsAir  =  /* fluid major constituent is Air */
(PID.TID 0000.0001)                   F
(PID.TID 0000.0001)     ;
(PID.TID 0000.0001) fluidIsWater=  /* fluid major constituent is Water */
(PID.TID 0000.0001)                   T
(PID.TID 0000.0001)     ;
(PID.TID 0000.0001) usingPCoords =  /* use p (or p*) vertical coordinate */
(PID.TID 0000.0001)                   F
(PID.TID 0000.0001)     ;
(PID.TID 0000.0001) usingZCoords =  /* use z (or z*) vertical coordinate */
(PID.TID 0000.0001)                   T
(PID.TID 0000.0001)     ;
(PID.TID 0000.0001) tRef =   /* Reference temperature profile ( oC or K ) */
(PID.TID 0000.0001)     3 @  4.000000000000000E+00              /* K =  1:  3 */
(PID.TID 0000.0001)     ;
(PID.TID 0000.0001) sRef =   /* Reference salinity profile ( psu ) */
(PID.TID 0000.0001)     3 @  3.465000000000000E+01              /* K =  1:  3 */
(PID.TID 0000.0001)     ;
(PID.TID 0000.0001) viscAh =   /* Lateral eddy viscosity ( m^2/s ) */
(PID.TID 0000.0001)                 5.000000000000000E+04
(PID.TID 0000.0001)     ;
(PID.TID 0000.0001) viscAhMax =   /* Maximum lateral eddy viscosity ( m^2/s ) */
(PID.TID 0000.0001)                 1.000000000000000E+21
(PID.TID 0000.0001)     ;
(PID.TID 0000.0001) viscAhGrid =   /* Grid dependent lateral eddy viscosity ( non-dim. ) */
(PID.TID 0000.0001)                 0.000000000000000E+00
(PID.TID 0000.0001)     ;
(PID.TID 0000.0001) useFullLeith =   /* Use Full Form of Leith Viscosity on/off flag*/
(PID.TID 0000.0001)                   F
(PID.TID 0000.0001)     ;
(PID.TID 0000.0001) useStrainTensionVisc =   /* Use StrainTension Form of Viscous Operator on/off flag*/
(PID.TID 0000.0001)                   F
(PID.TID 0000.0001)     ;
(PID.TID 0000.0001) useAreaViscLength =   /* Use area for visc length instead of geom. mean*/
(PID.TID 0000.0001)                   F
(PID.TID 0000.0001)     ;
(PID.TID 0000.0001) viscC2leith = /* Leith harmonic visc. factor (on grad(vort),non-dim.) */
(PID.TID 0000.0001)                 0.000000000000000E+00
(PID.TID 0000.0001)     ;
(PID.TID 0000.0001) viscC2leithD = /* Leith harmonic viscosity factor (on grad(div),non-dim.) */
(PID.TID 0000.0001)                 0.000000000000000E+00
(PID.TID 0000.0001)     ;
(PID.TID 0000.0001) viscC2smag =   /* Smagorinsky harmonic viscosity factor (non-dim.) */
(PID.TID 0000.0001)                 0.000000000000000E+00
(PID.TID 0000.0001)     ;
(PID.TID 0000.0001) viscA4 =   /* Lateral biharmonic viscosity ( m^4/s ) */
(PID.TID 0000.0001)                 0.000000000000000E+00
(PID.TID 0000.0001)     ;
(PID.TID 0000.0001) viscA4Max =   /* Maximum biharmonic viscosity ( m^2/s ) */
(PID.TID 0000.0001)                 1.000000000000000E+21
(PID.TID 0000.0001)     ;
(PID.TID 0000.0001) viscA4Grid =   /* Grid dependent biharmonic viscosity ( non-dim. ) */
(PID.TID 0000.0001)                 0.000000000000000E+00
(PID.TID 0000.0001)     ;
(PID.TID 0000.0001) viscC4leith = /* Leith biharm viscosity factor (on grad(vort), non-dim.) */
(PID.TID 0000.0001)                 0.000000000000000E+00
(PID.TID 0000.0001)     ;
(PID.TID 0000.0001) viscC4leithD = /* Leith biharm viscosity factor (on grad(div), non-dim.) */
(PID.TID 0000.0001)                 0.000000000000000E+00
(PID.TID 0000.0001)     ;
(PID.TID 0000.0001) viscC4Smag = /* Smagorinsky biharm viscosity factor (non-dim) */
(PID.TID 0000.0001)                 0.000000000000000E+00
(PID.TID 0000.0001)     ;
(PID.TID 0000.0001) no_slip_sides =  /* Viscous BCs: No-slip sides */
(PID.TID 0000.0001)                   F
(PID.TID 0000.0001)     ;
(PID.TID 0000.0001) sideDragFactor = /* side-drag scaling factor (non-dim) */
(PID.TID 0000.0001)                 2.000000000000000E+00
(PID.TID 0000.0001)     ;
(PID.TID 0000.0001) viscAr =   /* Vertical eddy viscosity ( units of r^2/s ) */
(PID.TID 0000.0001)                 1.930000000000000E-05
(PID.TID 0000.0001)     ;
(PID.TID 0000.0001) no_slip_bottom =  /* Viscous BCs: No-slip bottom */
(PID.TID 0000.0001)                   T
(PID.TID 0000.0001)     ;
(PID.TID 0000.0001) bottomDragLinear = /* linear bottom-drag coefficient ( 1/s ) */
(PID.TID 0000.0001)                 0.000000000000000E+00
(PID.TID 0000.0001)     ;
(PID.TID 0000.0001) bottomDragQuadratic = /* quadratic bottom-drag coeff. ( 1/m ) */
(PID.TID 0000.0001)                 0.000000000000000E+00
[...]
(PID.TID 0000.0001)  exf_GetFFieldsRec:
(PID.TID 0000.0001)  exf_GetFFieldsRec: first, changed, fac:   F   F   0.54234973E+00
(PID.TID 0000.0001)  exf_GetFFieldsRec: myiter, count0, count1:   1433      3      4
(PID.TID 0000.0001)  exf_GetFFieldsRec:
(PID.TID 0000.0001)  exf_GetFFieldsRec:
(PID.TID 0000.0001)  exf_GetFFieldsRec: first, changed, fac:   F   F   0.54234973E+00
(PID.TID 0000.0001)  exf_GetFFieldsRec: myiter, count0, count1:   1433      3      4
(PID.TID 0000.0001)  exf_GetFFieldsRec:
(PID.TID 0000.0001)  exf_GetFFieldsRec:
(PID.TID 0000.0001)  exf_GetFFieldsRec: first, changed, fac:   F   F   0.54234973E+00
(PID.TID 0000.0001)  exf_GetFFieldsRec: myiter, count0, count1:   1433      3      4
(PID.TID 0000.0001)  exf_GetFFieldsRec:
(PID.TID 0000.0001)  exf_GetFFieldsRec:
(PID.TID 0000.0001)  exf_GetFFieldsRec: first, changed, fac:   F   F   0.54234973E+00
(PID.TID 0000.0001)  exf_GetFFieldsRec: myiter, count0, count1:   1433      3      4
(PID.TID 0000.0001)  exf_GetFFieldsRec:
(PID.TID 0000.0001)  exf_GetFFieldsRec:
(PID.TID 0000.0001)  exf_GetFFieldsRec: first, changed, fac:   F   F   0.54098361E+00
(PID.TID 0000.0001)  exf_GetFFieldsRec: myiter, count0, count1:   1434      3      4
(PID.TID 0000.0001)  exf_GetFFieldsRec:
(PID.TID 0000.0001)  exf_GetFFieldsRec:
(PID.TID 0000.0001)  exf_GetFFieldsRec: first, changed, fac:   F   F   0.54098361E+00
(PID.TID 0000.0001)  exf_GetFFieldsRec: myiter, count0, count1:   1434      3      4
(PID.TID 0000.0001)  exf_GetFFieldsRec:
(PID.TID 0000.0001)  exf_GetFFieldsRec:
(PID.TID 0000.0001)  exf_GetFFieldsRec: first, changed, fac:   F   F   0.54098361E+00
(PID.TID 0000.0001)  exf_GetFFieldsRec: myiter, count0, count1:   1434      3      4
(PID.TID 0000.0001)  exf_GetFFieldsRec:
(PID.TID 0000.0001)  exf_GetFFieldsRec:
(PID.TID 0000.0001)  exf_GetFFieldsRec: first, changed, fac:   F   F   0.54098361E+00
(PID.TID 0000.0001)  exf_GetFFieldsRec: myiter, count0, count1:   1434      3      4
(PID.TID 0000.0001)  exf_GetFFieldsRec:
(PID.TID 0000.0001)  exf_GetFFieldsRec:
(PID.TID 0000.0001)  exf_GetFFieldsRec: first, changed, fac:   F   F   0.54098361E+00
(PID.TID 0000.0001)  exf_GetFFieldsRec: myiter, count0, count1:   1434      3      4
(PID.TID 0000.0001)  exf_GetFFieldsRec:
(PID.TID 0000.0001)  exf_GetFFieldsRec:
(PID.TID 0000.0001)  exf_GetFFieldsRec: first, changed, fac:   F   F   0.54098361E+00
(PID.TID 0000.0001)  exf_GetFFieldsRec: myiter, count0, count1:   1434      3      4
(PID.TID 0000.0001)  exf_GetFFieldsRec:
(PID.TID 0000.0001)  exf_GetFFieldsRec:
(PID.TID 0000.0001)  exf_GetFFieldsRec: first, changed, fac:   F   F   0.54098361E+00
(PID.TID 0000.0001)  exf_GetFFieldsRec: myiter, count0, count1:   1434      3      4
(PID.TID 0000.0001)  exf_GetFFieldsRec:
(PID.TID 0000.0001)  exf_GetFFieldsRec:
(PID.TID 0000.0001)  exf_GetFFieldsRec: first, changed, fac:   F   F   0.54098361E+00
(PID.TID 0000.0001)  exf_GetFFieldsRec: myiter, count0, count1:   1434      3      4
(PID.TID 0000.0001)  exf_GetFFieldsRec:
(PID.TID 0000.0001)  exf_GetFFieldsRec:
(PID.TID 0000.0001)  exf_GetFFieldsRec: first, changed, fac:   F   F   0.53961749E+00
(PID.TID 0000.0001)  exf_GetFFieldsRec: myiter, count0, count1:   1435      3      4
(PID.TID 0000.0001)  exf_GetFFieldsRec:
(PID.TID 0000.0001)  exf_GetFFieldsRec:
(PID.TID 0000.0001)  exf_GetFFieldsRec: first, changed, fac:   F   F   0.53961749E+00
(PID.TID 0000.0001)  exf_GetFFieldsRec: myiter, count0, count1:   1435      3      4
(PID.TID 0000.0001)  exf_GetFFieldsRec:
(PID.TID 0000.0001)  exf_GetFFieldsRec:
(PID.TID 0000.0001)  exf_GetFFieldsRec: first, changed, fac:   F   F   0.53961749E+00
(PID.TID 0000.0001)  exf_GetFFieldsRec: myiter, count0, count1:   1435      3      4
(PID.TID 0000.0001)  exf_GetFFieldsRec:
(PID.TID 0000.0001)  exf_GetFFieldsRec:
(PID.TID 0000.0001)  exf_GetFFieldsRec: first, changed, fac:   F   F   0.53961749E+00
(PID.TID 0000.0001)  exf_GetFFieldsRec: myiter, count0, count1:   1435      3      4
(PID.TID 0000.0001)  exf_GetFFieldsRec:
(PID.TID 0000.0001)  exf_GetFFieldsRec:
(PID.TID 0000.0001)  exf_GetFFieldsRec: first, changed, fac:   F   F   0.53961749E+00
(PID.TID 0000.0001)  exf_GetFFieldsRec: myiter, count0, count1:   1435      3      4
(PID.TID 0000.0001)  exf_GetFFieldsRec:
(PID.TID 0000.0001)  exf_GetFFieldsRec:
(PID.TID 0000.0001)  exf_GetFFieldsRec: first, changed, fac:   F   F   0.53961749E+00
(PID.TID 0000.0001)  exf_GetFFieldsRec: myiter, count0, count1:   1435      3      4
(PID.TID 0000.0001)  exf_GetFFieldsRec:
(PID.TID 0000.0001)  exf_GetFFieldsRec:
(PID.TID 0000.0001)  exf_GetFFieldsRec: first, changed, fac:   F   F   0.53961749E+00
(PID.TID 0000.0001)  exf_GetFFieldsRec: myiter, count0, count1:   1435      3      4
(PID.TID 0000.0001)  exf_GetFFieldsRec:
(PID.TID 0000.0001)  exf_GetFFieldsRec:
(PID.TID 0000.0001)  exf_GetFFieldsRec: first, changed, fac:   F   F   0.53961749E+00
(PID.TID 0000.0001)  exf_GetFFieldsRec: myiter, count0, count1:   1435      3      4
(PID.TID 0000.0001)  exf_GetFFieldsRec:
(PID.TID 0000.0001)  exf_GetFFieldsRec:
(PID.TID 0000.0001)  exf_GetFFieldsRec: first, changed, fac:   F   F   0.53825137E+00
(PID.TID 0000.0001)  exf_GetFFieldsRec: myiter, count0, count1:   1436      3      4
(PID.TID 0000.0001)  exf_GetFFieldsRec:
(PID.TID 0000.0001)  exf_GetFFieldsRec:
(PID.TID 0000.0001)  exf_GetFFieldsRec: first, changed, fac:   F   F   0.53825137E+00
(PID.TID 0000.0001)  exf_GetFFieldsRec: myiter, count0, count1:   1436      3      4
(PID.TID 0000.0001)  exf_GetFFieldsRec:
(PID.TID 0000.0001)  exf_GetFFieldsRec:
(PID.TID 0000.0001)  exf_GetFFieldsRec: first, changed, fac:   F   F   0.53825137E+00
(PID.TID 0000.0001)  exf_GetFFieldsRec: myiter, count0, count1:   1436      3      4
(PID.TID 0000.0001)  exf_GetFFieldsRec:
(PID.TID 0000.0001)  exf_GetFFieldsRec:
(PID.TID 0000.0001)  exf_GetFFieldsRec: first, changed, fac:   F   F   0.53825137E+00
(PID.TID 0000.0001)  exf_GetFFieldsRec: myiter, count0, count1:   1436      3      4
(PID.TID 0000.0001)  exf_GetFFieldsRec:
(PID.TID 0000.0001)  exf_GetFFieldsRec:
(PID.TID 0000.0001)  exf_GetFFieldsRec: first, changed, fac:   F   F   0.53825137E+00
(PID.TID 0000.0001)  exf_GetFFieldsRec: myiter, count0, count1:   1436      3      4
(PID.TID 0000.0001)  exf_GetFFieldsRec:
(PID.TID 0000.0001)  exf_GetFFieldsRec:
(PID.TID 0000.0001)  exf_GetFFieldsRec: first, changed, fac:   F   F   0.53825137E+00
(PID.TID 0000.0001)  exf_GetFFieldsRec: myiter, count0, count1:   1436      3      4
(PID.TID 0000.0001)  exf_GetFFieldsRec:
(PID.TID 0000.0001)  exf_GetFFieldsRec:
(PID.TID 0000.0001)  exf_GetFFieldsRec: first, changed, fac:   F   F   0.53825137E+00
(PID.TID 0000.0001)  exf_GetFFieldsRec: myiter, count0, count1:   1436      3      4
(PID.TID 0000.0001)  exf_GetFFieldsRec:
(PID.TID 0000.0001)  exf_GetFFieldsRec:
(PID.TID 0000.0001)  exf_GetFFieldsRec: first, changed, fac:   F   F   0.53825137E+00
(PID.TID 0000.0001)  exf_GetFFieldsRec: myiter, count0, count1:   1436      3      4
(PID.TID 0000.0001)  exf_GetFFieldsRec:
 Computing Diagnostic # 115  EXFtaux      Counter:      -1   Parms: SU      U1      
 Computing Diagnostic # 116  EXFtauy      Counter:      -1   Parms: SV      U1      
 Computing Diagnostic # 114  EXFqnet      Counter:      -1   Parms: SM      U1      
 Computing Diagnostic # 125  EXFempmr     Counter:      -1   Parms: SM      U1      
 Computing Diagnostic # 109  EXFhl        Counter:      -1   Parms: SM      U1      
 Computing Diagnostic # 108  EXFhs        Counter:      -1   Parms: SM      U1      
 Computing Diagnostic # 111  EXFswnet     Counter:      -1   Parms: SM      U1      
 Computing Diagnostic # 110  EXFlwnet     Counter:      -1   Parms: SM      U1      
 Computing Diagnostic # 117  EXFuwind     Counter:      -1   Parms: SM      U1      
 Computing Diagnostic # 118  EXFvwind     Counter:      -1   Parms: SM      U1      
 Computing Diagnostic # 120  EXFatemp     Counter:      -1   Parms: SM      U1      
(PID.TID 0000.0001)  exf_GetFFieldsRec:
(PID.TID 0000.0001)  exf_GetFFieldsRec: first, changed, fac:   F   F   0.53688525E+00
(PID.TID 0000.0001)  exf_GetFFieldsRec: myiter, count0, count1:   1437      3      4
(PID.TID 0000.0001)  exf_GetFFieldsRec:
(PID.TID 0000.0001)  exf_GetFFieldsRec:
(PID.TID 0000.0001)  exf_GetFFieldsRec: first, changed, fac:   F   F   0.53688525E+00
(PID.TID 0000.0001)  exf_GetFFieldsRec: myiter, count0, count1:   1437      3      4
(PID.TID 0000.0001)  exf_GetFFieldsRec:
(PID.TID 0000.0001)  exf_GetFFieldsRec:
(PID.TID 0000.0001)  exf_GetFFieldsRec: first, changed, fac:   F   F   0.53688525E+00
(PID.TID 0000.0001)  exf_GetFFieldsRec: myiter, count0, count1:   1437      3      4
(PID.TID 0000.0001)  exf_GetFFieldsRec:
(PID.TID 0000.0001)  exf_GetFFieldsRec:
(PID.TID 0000.0001)  exf_GetFFieldsRec: first, changed, fac:   F   F   0.53688525E+00
(PID.TID 0000.0001)  exf_GetFFieldsRec: myiter, count0, count1:   1437      3      4
(PID.TID 0000.0001)  exf_GetFFieldsRec:
(PID.TID 0000.0001)  exf_GetFFieldsRec:
(PID.TID 0000.0001)  exf_GetFFieldsRec: first, changed, fac:   F   F   0.53688525E+00
(PID.TID 0000.0001)  exf_GetFFieldsRec: myiter, count0, count1:   1437      3      4
(PID.TID 0000.0001)  exf_GetFFieldsRec:
(PID.TID 0000.0001)  exf_GetFFieldsRec:
(PID.TID 0000.0001)  exf_GetFFieldsRec: first, changed, fac:   F   F   0.53688525E+00
(PID.TID 0000.0001)  exf_GetFFieldsRec: myiter, count0, count1:   1437      3      4
(PID.TID 0000.0001)  exf_GetFFieldsRec:
(PID.TID 0000.0001)  exf_GetFFieldsRec:
(PID.TID 0000.0001)  exf_GetFFieldsRec: first, changed, fac:   F   F   0.53688525E+00
(PID.TID 0000.0001)  exf_GetFFieldsRec: myiter, count0, count1:   1437      3      4
(PID.TID 0000.0001)  exf_GetFFieldsRec:
(PID.TID 0000.0001)  exf_GetFFieldsRec:
(PID.TID 0000.0001)  exf_GetFFieldsRec: first, changed, fac:   F   F   0.53688525E+00
(PID.TID 0000.0001)  exf_GetFFieldsRec: myiter, count0, count1:   1437      3      4
(PID.TID 0000.0001)  exf_GetFFieldsRec:
(PID.TID 0000.0001)  exf_GetFFieldsRec:
(PID.TID 0000.0001)  exf_GetFFieldsRec: first, changed, fac:   F   F   0.53551913E+00
(PID.TID 0000.0001)  exf_GetFFieldsRec: myiter, count0, count1:   1438      3      4
(PID.TID 0000.0001)  exf_GetFFieldsRec:
(PID.TID 0000.0001)  exf_GetFFieldsRec:
(PID.TID 0000.0001)  exf_GetFFieldsRec: first, changed, fac:   F   F   0.53551913E+00
(PID.TID 0000.0001)  exf_GetFFieldsRec: myiter, count0, count1:   1438      3      4
(PID.TID 0000.0001)  exf_GetFFieldsRec:
(PID.TID 0000.0001)  exf_GetFFieldsRec:
(PID.TID 0000.0001)  exf_GetFFieldsRec: first, changed, fac:   F   F   0.53551913E+00
(PID.TID 0000.0001)  exf_GetFFieldsRec: myiter, count0, count1:   1438      3      4
(PID.TID 0000.0001)  exf_GetFFieldsRec:
(PID.TID 0000.0001)  exf_GetFFieldsRec:
(PID.TID 0000.0001)  exf_GetFFieldsRec: first, changed, fac:   F   F   0.53551913E+00
(PID.TID 0000.0001)  exf_GetFFieldsRec: myiter, count0, count1:   1438      3      4
(PID.TID 0000.0001)  exf_GetFFieldsRec:
(PID.TID 0000.0001)  exf_GetFFieldsRec:
(PID.TID 0000.0001)  exf_GetFFieldsRec: first, changed, fac:   F   F   0.53551913E+00
(PID.TID 0000.0001)  exf_GetFFieldsRec: myiter, count0, count1:   1438      3      4
(PID.TID 0000.0001)  exf_GetFFieldsRec:
(PID.TID 0000.0001)  exf_GetFFieldsRec:
(PID.TID 0000.0001)  exf_GetFFieldsRec: first, changed, fac:   F   F   0.53551913E+00
(PID.TID 0000.0001)  exf_GetFFieldsRec: myiter, count0, count1:   1438      3      4
(PID.TID 0000.0001)  exf_GetFFieldsRec:
(PID.TID 0000.0001)  exf_GetFFieldsRec:
(PID.TID 0000.0001)  exf_GetFFieldsRec: first, changed, fac:   F   F   0.53551913E+00
(PID.TID 0000.0001)  exf_GetFFieldsRec: myiter, count0, count1:   1438      3      4
(PID.TID 0000.0001)  exf_GetFFieldsRec:
(PID.TID 0000.0001)  exf_GetFFieldsRec:
(PID.TID 0000.0001)  exf_GetFFieldsRec: first, changed, fac:   F   F   0.53551913E+00
(PID.TID 0000.0001)  exf_GetFFieldsRec: myiter, count0, count1:   1438      3      4
(PID.TID 0000.0001)  exf_GetFFieldsRec:
(PID.TID 0000.0001)  exf_GetFFieldsRec:
(PID.TID 0000.0001)  exf_GetFFieldsRec: first, changed, fac:   F   F   0.53415301E+00
(PID.TID 0000.0001)  exf_GetFFieldsRec: myiter, count0, count1:   1439      3      4
(PID.TID 0000.0001)  exf_GetFFieldsRec:
(PID.TID 0000.0001)  exf_GetFFieldsRec:
(PID.TID 0000.0001)  exf_GetFFieldsRec: first, changed, fac:   F   F   0.53415301E+00
(PID.TID 0000.0001)  exf_GetFFieldsRec: myiter, count0, count1:   1439      3      4
(PID.TID 0000.0001)  exf_GetFFieldsRec:
(PID.TID 0000.0001)  exf_GetFFieldsRec:
(PID.TID 0000.0001)  exf_GetFFieldsRec: first, changed, fac:   F   F   0.53415301E+00
(PID.TID 0000.0001)  exf_GetFFieldsRec: myiter, count0, count1:   1439      3      4
(PID.TID 0000.0001)  exf_GetFFieldsRec:
(PID.TID 0000.0001)  exf_GetFFieldsRec:
(PID.TID 0000.0001)  exf_GetFFieldsRec: first, changed, fac:   F   F   0.53415301E+00
(PID.TID 0000.0001)  exf_GetFFieldsRec: myiter, count0, count1:   1439      3      4
(PID.TID 0000.0001)  exf_GetFFieldsRec:
(PID.TID 0000.0001)  exf_GetFFieldsRec:
(PID.TID 0000.0001)  exf_GetFFieldsRec: first, changed, fac:   F   F   0.53415301E+00
(PID.TID 0000.0001)  exf_GetFFieldsRec: myiter, count0, count1:   1439      3      4
(PID.TID 0000.0001)  exf_GetFFieldsRec:
(PID.TID 0000.0001)  exf_GetFFieldsRec:
(PID.TID 0000.0001)  exf_GetFFieldsRec: first, changed, fac:   F   F   0.53415301E+00
(PID.TID 0000.0001)  exf_GetFFieldsRec: myiter, count0, count1:   1439      3      4
(PID.TID 0000.0001)  exf_GetFFieldsRec:
(PID.TID 0000.0001)  exf_GetFFieldsRec:
(PID.TID 0000.0001)  exf_GetFFieldsRec: first, changed, fac:   F   F   0.53415301E+00
(PID.TID 0000.0001)  exf_GetFFieldsRec: myiter, count0, count1:   1439      3      4
(PID.TID 0000.0001)  exf_GetFFieldsRec:
(PID.TID 0000.0001)  exf_GetFFieldsRec:
(PID.TID 0000.0001)  exf_GetFFieldsRec: first, changed, fac:   F   F   0.53415301E+00
(PID.TID 0000.0001)  exf_GetFFieldsRec: myiter, count0, count1:   1439      3      4
(PID.TID 0000.0001)  exf_GetFFieldsRec:
(PID.TID 0000.0001) %CHECKPOINT      1439 ckptA
(PID.TID 0000.0001)   Seconds in section "ALL                    [THE_MODEL_MAIN]":
(PID.TID 0000.0001)           User time:  18.9441203
(PID.TID 0000.0001)         System time:  0.595909974
(PID.TID 0000.0001)     Wall clock time:  19.5971379
(PID.TID 0000.0001)          No. starts: 1
(PID.TID 0000.0001)           No. stops: 1
(PID.TID 0000.0001)   Seconds in section "INITIALISE_FIXED       [THE_MODEL_MAIN]":
(PID.TID 0000.0001)           User time:  0.501923999
(PID.TID 0000.0001)         System time:  0.0269959997
(PID.TID 0000.0001)     Wall clock time:  0.536221981
(PID.TID 0000.0001)          No. starts: 1
(PID.TID 0000.0001)           No. stops: 1
(PID.TID 0000.0001)   Seconds in section "THE_MAIN_LOOP          [THE_MODEL_MAIN]":
(PID.TID 0000.0001)           User time:  18.4391961
(PID.TID 0000.0001)         System time:  0.562915005
(PID.TID 0000.0001)     Wall clock time:  19.0364051
(PID.TID 0000.0001)          No. starts: 1
(PID.TID 0000.0001)           No. stops: 1
(PID.TID 0000.0001)   Seconds in section "INITIALISE_VARIA    [THE_MAIN_LOOP]":
(PID.TID 0000.0001)           User time:  0.0199970007
(PID.TID 0000.0001)         System time:  0.00499900058
(PID.TID 0000.0001)     Wall clock time:  0.0271060467
(PID.TID 0000.0001)          No. starts: 1
(PID.TID 0000.0001)           No. stops: 1
(PID.TID 0000.0001)   Seconds in section "MAIN LOOP           [THE_MAIN_LOOP]":
(PID.TID 0000.0001)           User time:  18.419199
(PID.TID 0000.0001)         System time:  0.557916004
(PID.TID 0000.0001)     Wall clock time:  19.009222
(PID.TID 0000.0001)          No. starts: 1
(PID.TID 0000.0001)           No. stops: 1
(PID.TID 0000.0001)   Seconds in section "DO_STATEVARS_DIAGS  [FORWARD_STEP]":
(PID.TID 0000.0001)           User time:  0.138981044
(PID.TID 0000.0001)         System time:  0.00699801743
(PID.TID 0000.0001)     Wall clock time:  0.152076721
(PID.TID 0000.0001)          No. starts: 4320
(PID.TID 0000.0001)           No. stops: 4320
(PID.TID 0000.0001)   Seconds in section "LOAD_FIELDS_DRIVER  [FORWARD_STEP]":
(PID.TID 0000.0001)           User time:  2.43264008
(PID.TID 0000.0001)         System time:  0.00999697298
(PID.TID 0000.0001)     Wall clock time:  2.46781826
(PID.TID 0000.0001)          No. starts: 1440
(PID.TID 0000.0001)           No. stops: 1440
(PID.TID 0000.0001)   Seconds in section "EXF_GETFORCING     [LOAD_FLDS_DRIVER]":
(PID.TID 0000.0001)           User time:  2.37664998
(PID.TID 0000.0001)         System time:  0.00799896568
(PID.TID 0000.0001)     Wall clock time:  2.39402008
(PID.TID 0000.0001)          No. starts: 1440
(PID.TID 0000.0001)           No. stops: 1440
(PID.TID 0000.0001)   Seconds in section "DO_OCEANIC_PHYS     [FORWARD_STEP]":
(PID.TID 0000.0001)           User time:  0.89685446
(PID.TID 0000.0001)         System time:  0.0139999464
(PID.TID 0000.0001)     Wall clock time:  0.904062033
(PID.TID 0000.0001)          No. starts: 1440
(PID.TID 0000.0001)           No. stops: 1440
(PID.TID 0000.0001)   Seconds in section "SEAICE_MODEL    [DO_OCEANIC_PHYS]":
(PID.TID 0000.0001)           User time:  0.752889752
(PID.TID 0000.0001)         System time:  0.00999996066
(PID.TID 0000.0001)     Wall clock time:  0.767337084
(PID.TID 0000.0001)          No. starts: 1440
(PID.TID 0000.0001)           No. stops: 1440
(PID.TID 0000.0001)   Seconds in section "DYNSOLVER          [SEAICE_MODEL]":
(PID.TID 0000.0001)           User time:  0.114980459
(PID.TID 0000.0001)         System time:  0.00199998915
(PID.TID 0000.0001)     Wall clock time:  0.116636753
(PID.TID 0000.0001)          No. starts: 1440
(PID.TID 0000.0001)           No. stops: 1440
(PID.TID 0000.0001)   Seconds in section "MONITOR             [FORWARD_STEP]":
(PID.TID 0000.0001)           User time:  0.0429951549
(PID.TID 0000.0001)         System time:  0.00299800187
(PID.TID 0000.0001)     Wall clock time:  0.0450417995
(PID.TID 0000.0001)          No. starts: 1440
(PID.TID 0000.0001)           No. stops: 1440
(PID.TID 0000.0001)   Seconds in section "DO_THE_MODEL_IO     [FORWARD_STEP]":
(PID.TID 0000.0001)           User time:  14.6567725
(PID.TID 0000.0001)         System time:  0.508926041
(PID.TID 0000.0001)     Wall clock time:  15.1800714
(PID.TID 0000.0001)          No. starts: 1440
(PID.TID 0000.0001)           No. stops: 1440
(PID.TID 0000.0001)   Seconds in section "DO_WRITE_PICKUP        [THE_MODEL_MAIN]":
(PID.TID 0000.0001)           User time:  0.0030002594
(PID.TID 0000.0001)         System time:  0.00599896908
(PID.TID 0000.0001)     Wall clock time:  0.0244028568
(PID.TID 0000.0001)          No. starts: 1
(PID.TID 0000.0001)           No. stops: 1
(PID.TID 0000.0001) // ======================================================
(PID.TID 0000.0001) // Tile <-> Tile communication statistics
(PID.TID 0000.0001) // ======================================================
(PID.TID 0000.0001) // o Tile number: 000001
(PID.TID 0000.0001) //         No. X exchanges =              0
(PID.TID 0000.0001) //            Max. X spins =              0
(PID.TID 0000.0001) //            Min. X spins =     1000000000
(PID.TID 0000.0001) //          Total. X spins =              0
(PID.TID 0000.0001) //            Avg. X spins =       0.00E+00
(PID.TID 0000.0001) //         No. Y exchanges =              0
(PID.TID 0000.0001) //            Max. Y spins =              0
(PID.TID 0000.0001) //            Min. Y spins =     1000000000
(PID.TID 0000.0001) //          Total. Y spins =              0
(PID.TID 0000.0001) //            Avg. Y spins =       0.00E+00
(PID.TID 0000.0001) // o Thread number: 000001
(PID.TID 0000.0001) //            No. barriers =          10402
(PID.TID 0000.0001) //      Max. barrier spins =              1
(PID.TID 0000.0001) //      Min. barrier spins =              1
(PID.TID 0000.0001) //     Total barrier spins =          10402
(PID.TID 0000.0001) //      Avg. barrier spins =       1.00E+00
