(PID.TID 0000.0001) 
(PID.TID 0000.0001) // ======================================================
(PID.TID 0000.0001) //                      MITgcm UV
(PID.TID 0000.0001) //                      =========
(PID.TID 0000.0001) // ======================================================
(PID.TID 0000.0001) // execution environment starting up...
(PID.TID 0000.0001) 
(PID.TID 0000.0001) // MITgcmUV version:  checkpoint68w
(PID.TID 0000.0001) // Build user:        mlosch
(PID.TID 0000.0001) // Build host:        bkli04m056
(PID.TID 0000.0001) // Build date:        Thu May 23 07:24:53 CEST 2024
(PID.TID 0000.0001) 
(PID.TID 0000.0001) // =======================================================
(PID.TID 0000.0001) // Execution Environment parameter file "eedata"
(PID.TID 0000.0001) // =======================================================
(PID.TID 0000.0001) ># Example "eedata" file
(PID.TID 0000.0001) ># Lines beginning "#" are comments
(PID.TID 0000.0001) ># nTx - No. threads per process in X
(PID.TID 0000.0001) ># nTy - No. threads per process in Y
(PID.TID 0000.0001) > &EEPARMS
(PID.TID 0000.0001) > nTx=1,
(PID.TID 0000.0001) > nTy=1,
(PID.TID 0000.0001) > /
(PID.TID 0000.0001) ># Note: Some systems use & as the namelist terminator (as shown here).
(PID.TID 0000.0001) >#       Other systems use a / character.
(PID.TID 0000.0001) 
(PID.TID 0000.0001) // =======================================================
(PID.TID 0000.0001) // Computational Grid Specification ( see files "SIZE.h" )
(PID.TID 0000.0001) //                                  ( and "eedata"       )
(PID.TID 0000.0001) // =======================================================
(PID.TID 0000.0001)      nPx =    1 ; /* No. processes in X */
(PID.TID 0000.0001)      nPy =    1 ; /* No. processes in Y */
(PID.TID 0000.0001)      nSx =    2 ; /* No. tiles in X per process */
(PID.TID 0000.0001)      nSy =    2 ; /* No. tiles in Y per process */
(PID.TID 0000.0001)      sNx =   40 ; /* Tile size in X */
(PID.TID 0000.0001)      sNy =   21 ; /* Tile size in Y */
(PID.TID 0000.0001)      OLx =    3 ; /* Tile overlap distance in X */
(PID.TID 0000.0001)      OLy =    3 ; /* Tile overlap distance in Y */
(PID.TID 0000.0001)      nTx =    1 ; /* No. threads in X per process */
(PID.TID 0000.0001)      nTy =    1 ; /* No. threads in Y per process */
(PID.TID 0000.0001)       Nr =    1 ; /* No. levels in the vertical   */
(PID.TID 0000.0001)       Nx =   80 ; /* Total domain size in X ( = nPx*nSx*sNx ) */
(PID.TID 0000.0001)       Ny =   42 ; /* Total domain size in Y ( = nPy*nSy*sNy ) */
(PID.TID 0000.0001)   nTiles =    4 ; /* Total no. tiles per process ( = nSx*nSy ) */
(PID.TID 0000.0001)   nProcs =    1 ; /* Total no. processes ( = nPx*nPy ) */
(PID.TID 0000.0001) nThreads =    1 ; /* Total no. threads per process ( = nTx*nTy ) */
(PID.TID 0000.0001) usingMPI =    F ; /* Flag used to control whether MPI is in use */
(PID.TID 0000.0001)                   /*  note: To execute a program with MPI calls */
(PID.TID 0000.0001)                   /*  it must be launched appropriately e.g     */
(PID.TID 0000.0001)                   /*  "mpirun -np 64 ......"                    */
(PID.TID 0000.0001) useCoupler=   F ; /* Flag used to control communications with   */
(PID.TID 0000.0001)                   /*  other model components, through a coupler */
(PID.TID 0000.0001) useNest2W_parent =    F ;/* Control 2-W Nesting comm */
(PID.TID 0000.0001) useNest2W_child  =    F ;/* Control 2-W Nesting comm */
(PID.TID 0000.0001) debugMode =    F ; /* print debug msg. (sequence of S/R calls)  */
(PID.TID 0000.0001) printMapIncludesZeros=    F ; /* print zeros in Std.Output maps */
(PID.TID 0000.0001) maxLengthPrt1D=   65 /* maxLength of 1D array printed to StdOut */
(PID.TID 0000.0001) 
(PID.TID 0000.0001) // ======================================================
(PID.TID 0000.0001) // Mapping of tiles to threads
(PID.TID 0000.0001) // ======================================================
(PID.TID 0000.0001) // -o- Thread   1, tiles (   1:   2,   1:   2)
(PID.TID 0000.0001) 
(PID.TID 0000.0001) // ======================================================
(PID.TID 0000.0001) // Tile <-> Tile connectvity table
(PID.TID 0000.0001) // ======================================================
(PID.TID 0000.0001) // Tile number: 000001 (process no. = 000000)
(PID.TID 0000.0001) //        WEST: Tile = 000002, Process = 000000, Comm = put
(PID.TID 0000.0001) //                bi = 000002, bj = 000001
(PID.TID 0000.0001) //        EAST: Tile = 000002, Process = 000000, Comm = put
(PID.TID 0000.0001) //                bi = 000002, bj = 000001
(PID.TID 0000.0001) //       SOUTH: Tile = 000003, Process = 000000, Comm = put
(PID.TID 0000.0001) //                bi = 000001, bj = 000002
(PID.TID 0000.0001) //       NORTH: Tile = 000003, Process = 000000, Comm = put
(PID.TID 0000.0001) //                bi = 000001, bj = 000002
(PID.TID 0000.0001) // Tile number: 000002 (process no. = 000000)
(PID.TID 0000.0001) //        WEST: Tile = 000001, Process = 000000, Comm = put
(PID.TID 0000.0001) //                bi = 000001, bj = 000001
(PID.TID 0000.0001) //        EAST: Tile = 000001, Process = 000000, Comm = put
(PID.TID 0000.0001) //                bi = 000001, bj = 000001
(PID.TID 0000.0001) //       SOUTH: Tile = 000004, Process = 000000, Comm = put
(PID.TID 0000.0001) //                bi = 000002, bj = 000002
(PID.TID 0000.0001) //       NORTH: Tile = 000004, Process = 000000, Comm = put
(PID.TID 0000.0001) //                bi = 000002, bj = 000002
(PID.TID 0000.0001) // Tile number: 000003 (process no. = 000000)
(PID.TID 0000.0001) //        WEST: Tile = 000004, Process = 000000, Comm = put
(PID.TID 0000.0001) //                bi = 000002, bj = 000002
(PID.TID 0000.0001) //        EAST: Tile = 000004, Process = 000000, Comm = put
(PID.TID 0000.0001) //                bi = 000002, bj = 000002
(PID.TID 0000.0001) //       SOUTH: Tile = 000001, Process = 000000, Comm = put
(PID.TID 0000.0001) //                bi = 000001, bj = 000001
(PID.TID 0000.0001) //       NORTH: Tile = 000001, Process = 000000, Comm = put
(PID.TID 0000.0001) //                bi = 000001, bj = 000001
(PID.TID 0000.0001) // Tile number: 000004 (process no. = 000000)
(PID.TID 0000.0001) //        WEST: Tile = 000003, Process = 000000, Comm = put
(PID.TID 0000.0001) //                bi = 000001, bj = 000002
(PID.TID 0000.0001) //        EAST: Tile = 000003, Process = 000000, Comm = put
(PID.TID 0000.0001) //                bi = 000001, bj = 000002
(PID.TID 0000.0001) //       SOUTH: Tile = 000002, Process = 000000, Comm = put
(PID.TID 0000.0001) //                bi = 000002, bj = 000001
(PID.TID 0000.0001) //       NORTH: Tile = 000002, Process = 000000, Comm = put
(PID.TID 0000.0001) //                bi = 000002, bj = 000001
(PID.TID 0000.0001) 
(PID.TID 0000.0001)  INI_PARMS: opening model parameter file "data"
(PID.TID 0000.0001)  OPEN_COPY_DATA_FILE: opening file data
(PID.TID 0000.0001) // =======================================================
(PID.TID 0000.0001) // Parameter file "data"
(PID.TID 0000.0001) // =======================================================
(PID.TID 0000.0001) ># ====================
(PID.TID 0000.0001) ># | Model parameters |
(PID.TID 0000.0001) ># ====================
(PID.TID 0000.0001) >#
(PID.TID 0000.0001) > &PARM01
(PID.TID 0000.0001) > tRef= -1.62,
(PID.TID 0000.0001) > sRef= 30.,
(PID.TID 0000.0001) > no_slip_sides=.FALSE.,
(PID.TID 0000.0001) > no_slip_bottom=.TRUE.,
(PID.TID 0000.0001) >#bottomDragLinear=1.E-3,
(PID.TID 0000.0001) > bottomDragQuadratic=5.E-3,
(PID.TID 0000.0001) > viscAr=3.E-2,
(PID.TID 0000.0001) > viscAh=3.E+2,
(PID.TID 0000.0001) > HeatCapacity_Cp = 3986.,
(PID.TID 0000.0001) > rhoNil          = 1030.,
(PID.TID 0000.0001) > rhoConstFresh   = 1000.,
(PID.TID 0000.0001) > eosType='LINEAR',
(PID.TID 0000.0001) > tAlpha=2.E-4,
(PID.TID 0000.0001) > sBeta= 0.,
(PID.TID 0000.0001) > staggerTimeStep=.TRUE.,
(PID.TID 0000.0001) > saltStepping=.FALSE.,
(PID.TID 0000.0001) >#tempStepping=.FALSE.,
(PID.TID 0000.0001) > tempAdvection=.FALSE.,
(PID.TID 0000.0001) > momStepping=.FALSE.,
(PID.TID 0000.0001) > f0=0.e-4,
(PID.TID 0000.0001) > beta=0.,
(PID.TID 0000.0001) > useJamartWetPoints=.TRUE.,
(PID.TID 0000.0001) > rigidLid=.FALSE.,
(PID.TID 0000.0001) > implicitFreeSurface=.TRUE.,
(PID.TID 0000.0001) >#exactConserv=.TRUE.,
(PID.TID 0000.0001) > convertFW2Salt=-1,
(PID.TID 0000.0001) > readBinaryPrec=64,
(PID.TID 0000.0001) > writeBinaryPrec=64,
(PID.TID 0000.0001) >#globalFiles=.TRUE.,
(PID.TID 0000.0001) >#useSingleCpuIO=.TRUE.,
(PID.TID 0000.0001) >#debugLevel=4,
(PID.TID 0000.0001) > /
(PID.TID 0000.0001) >
(PID.TID 0000.0001) ># Elliptic solver parameters
(PID.TID 0000.0001) > &PARM02
(PID.TID 0000.0001) > cg2dMaxIters=500,
(PID.TID 0000.0001) > cg2dTargetResidual=1.E-12,
(PID.TID 0000.0001) > /
(PID.TID 0000.0001) >
(PID.TID 0000.0001) ># Time stepping parameters
(PID.TID 0000.0001) > &PARM03
(PID.TID 0000.0001) > startTime=0.0,
(PID.TID 0000.0001) >#endTime=864000.,
(PID.TID 0000.0001) > nTimeSteps=12,
(PID.TID 0000.0001) > deltaT=3600.0,
(PID.TID 0000.0001) > abEps=0.1,
(PID.TID 0000.0001) > forcing_In_AB = .FALSE.,
(PID.TID 0000.0001) > pChkptFreq=3600000.,
(PID.TID 0000.0001) >#dumpFreq = 864000.,
(PID.TID 0000.0001) > monitorSelect = 2,
(PID.TID 0000.0001) > monitorFreq = 432000.,
(PID.TID 0000.0001) > adjMonitorFreq= 3600.,
(PID.TID 0000.0001) > /
(PID.TID 0000.0001) >
(PID.TID 0000.0001) ># Gridding parameters
(PID.TID 0000.0001) > &PARM04
(PID.TID 0000.0001) > usingCartesianGrid=.TRUE.,
(PID.TID 0000.0001) > delX=80*5.E3,
(PID.TID 0000.0001) > delY=42*5.E3,
(PID.TID 0000.0001) > ygOrigin=-110.E3,
(PID.TID 0000.0001) >#delR= 20., 30., 50.,
(PID.TID 0000.0001) > delR= 10.,
(PID.TID 0000.0001) > /
(PID.TID 0000.0001) >
(PID.TID 0000.0001) ># Input datasets
(PID.TID 0000.0001) > &PARM05
(PID.TID 0000.0001) > bathyFile       = 'bathy_3c.obcs',
(PID.TID 0000.0001) > uVelInitFile    = 'uVel_3c0.bin',
(PID.TID 0000.0001) > vVelInitFile    = 'vVel_3c0.bin',
(PID.TID 0000.0001) >#pSurfInitFile   = 'eta_3c0.bin',
(PID.TID 0000.0001) >#uVelInitFile    = 'uVel_3c1.bin',
(PID.TID 0000.0001) >#vVelInitFile    = 'vVel_3c1.bin',
(PID.TID 0000.0001) >#pSurfInitFile   = 'eta_3c1.bin',
(PID.TID 0000.0001) >#bathyFile       = 'channel.bin',
(PID.TID 0000.0001) >#uVelInitFile    = 'const+20.bin',
(PID.TID 0000.0001) >#vVelInitFile    = 'const_00.bin',
(PID.TID 0000.0001) > /
(PID.TID 0000.0001) 
(PID.TID 0000.0001)  INI_PARMS ; starts to read PARM01
(PID.TID 0000.0001)  INI_PARMS ; read PARM01 : OK
(PID.TID 0000.0001)  INI_PARMS ; starts to read PARM02
(PID.TID 0000.0001)  INI_PARMS ; read PARM02 : OK
(PID.TID 0000.0001)  INI_PARMS ; starts to read PARM03
(PID.TID 0000.0001)  INI_PARMS ; read PARM03 : OK
(PID.TID 0000.0001)  INI_PARMS ; starts to read PARM04
(PID.TID 0000.0001)  INI_PARMS ; read PARM04 : OK
(PID.TID 0000.0001)  INI_PARMS ; starts to read PARM05
(PID.TID 0000.0001)  INI_PARMS ; read PARM05 : OK
(PID.TID 0000.0001)  INI_PARMS: finished reading file "data"
(PID.TID 0000.0001)  PACKAGES_BOOT: opening data.pkg
(PID.TID 0000.0001)  OPEN_COPY_DATA_FILE: opening file data.pkg
(PID.TID 0000.0001) // =======================================================
(PID.TID 0000.0001) // Parameter file "data.pkg"
(PID.TID 0000.0001) // =======================================================
(PID.TID 0000.0001) ># Packages
(PID.TID 0000.0001) > &PACKAGES
(PID.TID 0000.0001) >  useEXF    = .TRUE.,
(PID.TID 0000.0001) >  useCAL    = .TRUE.,
(PID.TID 0000.0001) >  useSEAICE = .TRUE.,
(PID.TID 0000.0001) >  useOBCS   = .TRUE.,
(PID.TID 0000.0001) >  useDiagnostics=.TRUE.,
(PID.TID 0000.0001) >  useGrdchk = .TRUE.,
(PID.TID 0000.0001) > /
(PID.TID 0000.0001) 
(PID.TID 0000.0001)  PACKAGES_BOOT: finished reading data.pkg
(PID.TID 0000.0001)  PACKAGES_BOOT: On/Off package Summary
 --------  pkgs with a standard "usePKG" On/Off switch in "data.pkg":  --------
 pkg/obcs                 compiled   and   used ( useOBCS                  = T )
 pkg/cal                  compiled   and   used ( useCAL                   = T )
 pkg/exf                  compiled   and   used ( useEXF                   = T )
 pkg/autodiff             compiled   and   used ( useAUTODIFF              = T )
 pkg/grdchk               compiled   and   used ( useGrdchk                = T )
 pkg/ctrl                 compiled   and   used ( useCTRL                  = T )
 pkg/seaice               compiled   and   used ( useSEAICE                = T )
 pkg/thsice               compiled but not used ( useThSIce                = F )
 pkg/diagnostics          compiled   and   used ( useDiagnostics           = T )
 -------- pkgs without standard "usePKG" On/Off switch in "data.pkg":  --------
 pkg/generic_advdiff      compiled   and   used ( useGAD                   = T )
 pkg/mom_common           compiled but not used ( momStepping              = F )
 pkg/mom_vecinv           compiled but not used ( +vectorInvariantMomentum = F )
 pkg/mom_fluxform         compiled but not used ( & not vectorInvariantMom = F )
 pkg/monitor              compiled   and   used ( monitorFreq > 0.         = T )
 pkg/debug                compiled but not used ( debugMode                = F )
 pkg/rw                   compiled   and   used
 pkg/mdsio                compiled   and   used
 pkg/autodiff             compiled   and   used
 pkg/cost                 compiled   and   used
(PID.TID 0000.0001)  PACKAGES_BOOT: End of package Summary
(PID.TID 0000.0001) 
(PID.TID 0000.0001) CAL_READPARMS: opening data.cal
(PID.TID 0000.0001)  OPEN_COPY_DATA_FILE: opening file data.cal
(PID.TID 0000.0001) // =======================================================
(PID.TID 0000.0001) // Parameter file "data.cal"
(PID.TID 0000.0001) // =======================================================
(PID.TID 0000.0001) >#
(PID.TID 0000.0001) ># *******************
(PID.TID 0000.0001) ># Calendar Parameters
(PID.TID 0000.0001) ># *******************
(PID.TID 0000.0001) > &CAL_NML
(PID.TID 0000.0001) > TheCalendar='gregorian',
(PID.TID 0000.0001) ># TheCalendar='model',
(PID.TID 0000.0001) > startDate_1=19790101,
(PID.TID 0000.0001) > startDate_2=000000,
(PID.TID 0000.0001) > /
(PID.TID 0000.0001) 
(PID.TID 0000.0001) CAL_READPARMS: finished reading data.cal
(PID.TID 0000.0001) EXF_READPARMS: opening data.exf
(PID.TID 0000.0001)  OPEN_COPY_DATA_FILE: opening file data.exf
(PID.TID 0000.0001) // =======================================================
(PID.TID 0000.0001) // Parameter file "data.exf"
(PID.TID 0000.0001) // =======================================================
(PID.TID 0000.0001) >#
(PID.TID 0000.0001) ># *********************
(PID.TID 0000.0001) ># External Forcing Data
(PID.TID 0000.0001) ># *********************
(PID.TID 0000.0001) > &EXF_NML_01
(PID.TID 0000.0001) >#
(PID.TID 0000.0001) > useExfCheckRange  = .TRUE.,
(PID.TID 0000.0001) > repeatPeriod      = 2635200.0,
(PID.TID 0000.0001) > exf_iprec         = 64,
(PID.TID 0000.0001) > exf_monFreq       = 86400000.,
(PID.TID 0000.0001) >#useRelativeWind = .TRUE.,
(PID.TID 0000.0001) >#
(PID.TID 0000.0001) > /
(PID.TID 0000.0001) >
(PID.TID 0000.0001) ># *********************
(PID.TID 0000.0001) > &EXF_NML_02
(PID.TID 0000.0001) >#
(PID.TID 0000.0001) >#ustressstartdate1 = 19781216,
(PID.TID 0000.0001) >#ustressstartdate2 = 180000,
(PID.TID 0000.0001) >#ustressperiod     = 2635200.0,
(PID.TID 0000.0001) >#
(PID.TID 0000.0001) >#vstressstartdate1 = 19781216,
(PID.TID 0000.0001) >#vstressstartdate2 = 180000,
(PID.TID 0000.0001) >#vstressperiod     = 2635200.0,
(PID.TID 0000.0001) >#
(PID.TID 0000.0001) > atempstartdate1   = 19781216,
(PID.TID 0000.0001) > atempstartdate2   = 180000,
(PID.TID 0000.0001) > atempperiod       = 2635200.0,
(PID.TID 0000.0001) >#
(PID.TID 0000.0001) > aqhstartdate1     = 19781216,
(PID.TID 0000.0001) > aqhstartdate2     = 180000,
(PID.TID 0000.0001) > aqhperiod         = 2635200.0,
(PID.TID 0000.0001) >#
(PID.TID 0000.0001) > precipstartdate1  = 19781216,
(PID.TID 0000.0001) > precipstartdate2  = 180000,
(PID.TID 0000.0001) > precipperiod      = 2635200.0,
(PID.TID 0000.0001) >#
(PID.TID 0000.0001) > uwindstartdate1   = 19781216,
(PID.TID 0000.0001) > uwindstartdate2   = 180000,
(PID.TID 0000.0001) > uwindperiod       = 2635200.0,
(PID.TID 0000.0001) >#
(PID.TID 0000.0001) > vwindstartdate1   = 19781216,
(PID.TID 0000.0001) > vwindstartdate2   = 180000,
(PID.TID 0000.0001) > vwindperiod       = 2635200.0,
(PID.TID 0000.0001) >#
(PID.TID 0000.0001) > swdownstartdate1  = 19781216,
(PID.TID 0000.0001) > swdownstartdate2  = 180000,
(PID.TID 0000.0001) > swdownperiod      = 2635200.0,
(PID.TID 0000.0001) >#
(PID.TID 0000.0001) > lwdownstartdate1  = 19781216,
(PID.TID 0000.0001) > lwdownstartdate2  = 180000,
(PID.TID 0000.0001) > lwdownperiod      = 2635200.0,
(PID.TID 0000.0001) >#
(PID.TID 0000.0001) > climsststartdate1  = 19781216,
(PID.TID 0000.0001) > climsststartdate2  = 180000,
(PID.TID 0000.0001) > climsstperiod      = 2635200.0,
(PID.TID 0000.0001) > climsstTauRelax    = 2592000.,
(PID.TID 0000.0001) >#
(PID.TID 0000.0001) > climsssstartdate1  = 19781216,
(PID.TID 0000.0001) > climsssstartdate2  = 180000,
(PID.TID 0000.0001) > climsssperiod      = 2635200.0,
(PID.TID 0000.0001) >#climsssTauRelax    = 2592000.,
(PID.TID 0000.0001) >#
(PID.TID 0000.0001) > ustressfile       = ' ',
(PID.TID 0000.0001) > vstressfile       = ' ',
(PID.TID 0000.0001) > atempfile         = 'tair_4x.bin',
(PID.TID 0000.0001) > aqhfile           = 'qa70_4x.bin',
(PID.TID 0000.0001) > uwindfile         = 'windx.bin',
(PID.TID 0000.0001) > vwindfile         = 'windy.bin',
(PID.TID 0000.0001) > precipfile        = 'const_00.bin',
(PID.TID 0000.0001) > lwdownfile        = 'dlw_250.bin',
(PID.TID 0000.0001) > swdownfile        = 'dsw_100.bin',
(PID.TID 0000.0001) > runoffFile        = ' '
(PID.TID 0000.0001) > climsstfile       = 'tocn.bin',
(PID.TID 0000.0001) >#climsssfile       = 'socn.bin',
(PID.TID 0000.0001) > /
(PID.TID 0000.0001) >
(PID.TID 0000.0001) ># *********************
(PID.TID 0000.0001) > &EXF_NML_03
(PID.TID 0000.0001) >#exf_offset_atemp=5;
(PID.TID 0000.0001) > /
(PID.TID 0000.0001) >
(PID.TID 0000.0001) ># *********************
(PID.TID 0000.0001) ># old open64 compiler (4.2.1) cannot skip this namelist to read in the next one;
(PID.TID 0000.0001) ># comment out this namelist (not read).
(PID.TID 0000.0001) >#&EXF_NML_04
(PID.TID 0000.0001) >#&
(PID.TID 0000.0001) >
(PID.TID 0000.0001) ># *********************
(PID.TID 0000.0001) > &EXF_NML_OBCS
(PID.TID 0000.0001) > /
(PID.TID 0000.0001) 
(PID.TID 0000.0001) EXF_READPARMS: reading EXF_NML_01
(PID.TID 0000.0001) EXF_READPARMS: reading EXF_NML_02
(PID.TID 0000.0001) EXF_READPARMS: reading EXF_NML_03
(PID.TID 0000.0001) EXF_READPARMS: reading EXF_NML_OBCS
(PID.TID 0000.0001) EXF_READPARMS: finished reading data.exf
(PID.TID 0000.0001)  OBCS_READPARMS: opening data.obcs
(PID.TID 0000.0001)  OPEN_COPY_DATA_FILE: opening file data.obcs
(PID.TID 0000.0001) // =======================================================
(PID.TID 0000.0001) // Parameter file "data.obcs"
(PID.TID 0000.0001) // =======================================================
(PID.TID 0000.0001) ># ***************
(PID.TID 0000.0001) ># Open boundaries
(PID.TID 0000.0001) ># ***************
(PID.TID 0000.0001) > &OBCS_PARM01
(PID.TID 0000.0001) > OB_Jsouth =   80*1,
(PID.TID 0000.0001) > OB_Jnorth =   80*-1,
(PID.TID 0000.0001) > OB_Iwest  =   42*1,
(PID.TID 0000.0001) > OB_Ieast  =   42*-1,
(PID.TID 0000.0001) ># This flag checks and equalizes topography across open boundaries:
(PID.TID 0000.0001) > OBCSfixTopo = .TRUE.,
(PID.TID 0000.0001) > useOBCSprescribe=.TRUE.,
(PID.TID 0000.0001) > useSeaiceNeumann=.TRUE.,
(PID.TID 0000.0001) >#
(PID.TID 0000.0001) > OBSuFile='OBSu.bin',
(PID.TID 0000.0001) > OBSvFile='OBSv.bin',
(PID.TID 0000.0001) > OBNuFile='OBNu.bin',
(PID.TID 0000.0001) > OBNvFile='OBNv.bin',
(PID.TID 0000.0001) > OBWuFile='OBWu.bin',
(PID.TID 0000.0001) > OBWvFile='OBWv.bin',
(PID.TID 0000.0001) > OBEuFile='OBEu.bin',
(PID.TID 0000.0001) > OBEvFile='OBEv.bin',
(PID.TID 0000.0001) > /
(PID.TID 0000.0001) 
(PID.TID 0000.0001)  OBCS_READPARMS: finished reading data.obcs
(PID.TID 0000.0001)  OB_indexUnset = /* unset OB index value (i.e. no OB) */
(PID.TID 0000.0001)                       0
(PID.TID 0000.0001)     ;
(PID.TID 0000.0001)  Northern OB global indices : OB_Jnorth =
(PID.TID 0000.0001)    80 @       42                            /* I =  1: 80 */
(PID.TID 0000.0001)  Southern OB global indices : OB_Jsouth =
(PID.TID 0000.0001)    80 @        1                            /* I =  1: 80 */
(PID.TID 0000.0001)  Eastern  OB global indices : OB_Ieast =
(PID.TID 0000.0001)    42 @       80                            /* J =  1: 42 */
(PID.TID 0000.0001)  Western  OB global indices : OB_Iwest =
(PID.TID 0000.0001)    42 @        1                            /* J =  1: 42 */
(PID.TID 0000.0001) 
(PID.TID 0000.0001) 
(PID.TID 0000.0001)  SEAICE_READPARMS: opening data.seaice
(PID.TID 0000.0001)  OPEN_COPY_DATA_FILE: opening file data.seaice
(PID.TID 0000.0001) // =======================================================
(PID.TID 0000.0001) // Parameter file "data.seaice"
(PID.TID 0000.0001) // =======================================================
(PID.TID 0000.0001) ># SEAICE parameters
(PID.TID 0000.0001) > &SEAICE_PARM01
(PID.TID 0000.0001) > SEAICErestoreUnderIce=.TRUE.,
(PID.TID 0000.0001) >#same freezing point as pkg/thsice
(PID.TID 0000.0001) > SEAICE_tempFrz0    = 0.0,
(PID.TID 0000.0001) > SEAICE_dTempFrz_dS = -5.4e-02,
(PID.TID 0000.0001) >#seaice growth parameters
(PID.TID 0000.0001) > HO = 0.2,
(PID.TID 0000.0001) ># these have no effect in seaice_growth_adx, so we comment it out
(PID.TID 0000.0001) >#SEAICE_frazilFrac  = 1.,
(PID.TID 0000.0001) >#SEAICE_areaLossFormula = 2,
(PID.TID 0000.0001) >#SEAICE_growMeltByConv = .TRUE.,
(PID.TID 0000.0001) >#SEAICE_doOpenWaterMelt = .TRUE.,
(PID.TID 0000.0001) >#- same mcPheePiston value as in thsice with surf-current=0.2 m/s
(PID.TID 0000.0001) >#SEAICE_mcPheePiston= 8.7854425e-5,
(PID.TID 0000.0001) >#SEAICE_saltFrac    = 0.3,
(PID.TID 0000.0001) > SEAICE_salt0       = 4.,
(PID.TID 0000.0001) >#simplest (constant) albedo scheme
(PID.TID 0000.0001) > SEAICE_dryIceAlb   = 0.6,
(PID.TID 0000.0001) > SEAICE_wetIceAlb   = 0.6,
(PID.TID 0000.0001) > SEAICE_drySnowAlb  = 0.6,
(PID.TID 0000.0001) > SEAICE_wetSnowAlb  = 0.6,
(PID.TID 0000.0001) >#
(PID.TID 0000.0001) > SEAICE_strength    = 2.6780e+04,
(PID.TID 0000.0001) > OCEAN_drag         = 8.1541e-04,
(PID.TID 0000.0001) > SEAICE_waterDrag   = 5.3508E-03,
(PID.TID 0000.0001) > LSR_ERROR          = 1.E-12,
(PID.TID 0000.0001) > SEAICElinearIterMax= 500,
(PID.TID 0000.0001) > LSR_mixIniGuess    = 1,
(PID.TID 0000.0001) ># this is default anyway, so we comment it out
(PID.TID 0000.0001) >#SEAICEuseFlooding  = .TRUE.,
(PID.TID 0000.0001) >#SEAICEadvScheme    = 77,
(PID.TID 0000.0001) >#SEAICEadvSnow      = .TRUE.,
(PID.TID 0000.0001) >#SEAICEadvSalt      = .TRUE.,
(PID.TID 0000.0001) > SEAICE_no_Slip     = .FALSE.,
(PID.TID 0000.0001) >#
(PID.TID 0000.0001) > HsnowFile          = 'const_00.bin',
(PID.TID 0000.0001) > HsaltFile          = 'const_00.bin',
(PID.TID 0000.0001) > AreaFile           = 'ice0_area.obcs',
(PID.TID 0000.0001) > HeffFile           = 'ice0_heff.obcs',
(PID.TID 0000.0001) > SEAICEwriteState   = .TRUE.,
(PID.TID 0000.0001) > SEAICE_monFreq = 43200.,
(PID.TID 0000.0001) > /
(PID.TID 0000.0001) >
(PID.TID 0000.0001) > &SEAICE_PARM02
(PID.TID 0000.0001) >  mult_ice   = 1.E-15,
(PID.TID 0000.0001) >  cost_ice_flag = 1,
(PID.TID 0000.0001) > /
(PID.TID 0000.0001) >
(PID.TID 0000.0001) > &SEAICE_PARM03
(PID.TID 0000.0001) > /
(PID.TID 0000.0001) 
(PID.TID 0000.0001)  SEAICE_READPARMS: finished reading data.seaice
(PID.TID 0000.0001) AUTODIFF_READPARMS: opening data.autodiff
(PID.TID 0000.0001)  OPEN_COPY_DATA_FILE: opening file data.autodiff
(PID.TID 0000.0001) // =======================================================
(PID.TID 0000.0001) // Parameter file "data.autodiff"
(PID.TID 0000.0001) // =======================================================
(PID.TID 0000.0001) > &AUTODIFF_PARM01
(PID.TID 0000.0001) > SEAICEuseFREEDRIFTswitchInAd = .TRUE.
(PID.TID 0000.0001) > /
(PID.TID 0000.0001) 
(PID.TID 0000.0001) AUTODIFF_READPARMS: finished reading data.autodiff
(PID.TID 0000.0001) // ===================================
(PID.TID 0000.0001) // AUTODIFF parameters :
(PID.TID 0000.0001) // ===================================
(PID.TID 0000.0001) inAdExact = /* get an exact adjoint (no approximation) */
(PID.TID 0000.0001)                   T
(PID.TID 0000.0001)     ;
(PID.TID 0000.0001) useApproxAdvectionInAdMode = /* approximate AD-advection */
(PID.TID 0000.0001)                   F
(PID.TID 0000.0001)     ;
(PID.TID 0000.0001) cg2dFullAdjoint = /* use full hand written cg2d adjoint (no approximation) */
(PID.TID 0000.0001)                   F
(PID.TID 0000.0001)     ;
(PID.TID 0000.0001) useKPPinAdMode = /* use KPP in adjoint mode */
(PID.TID 0000.0001)                   F
(PID.TID 0000.0001)     ;
(PID.TID 0000.0001) useGMRediInAdMode = /* use GMRedi in adjoint mode */
(PID.TID 0000.0001)                   F
(PID.TID 0000.0001)     ;
(PID.TID 0000.0001) useSEAICEinAdMode = /* use SEAICE in adjoint mode */
(PID.TID 0000.0001)                   T
(PID.TID 0000.0001)     ;
(PID.TID 0000.0001) useGGL90inAdMode = /* use GGL90 in adjoint mode */
(PID.TID 0000.0001)                   F
(PID.TID 0000.0001)     ;
(PID.TID 0000.0001) useSALT_PLUMEinAdMode = /* use SALT_PLUME in adjoint mode */
(PID.TID 0000.0001)                   F
(PID.TID 0000.0001)     ;
(PID.TID 0000.0001) SEAICEuseDYNAMICSswitchInAd = /* switch On/Off SEAICE Dyn in AD mode */
(PID.TID 0000.0001)                   F
(PID.TID 0000.0001)     ;
(PID.TID 0000.0001) SEAICEuseFREEDRIFTswitchInAd= /* switch On/Off Free-Drift in AD mode */
(PID.TID 0000.0001)                   T
(PID.TID 0000.0001)     ;
(PID.TID 0000.0001) SEAICEapproxLevInAd = /* -1:SEAICE_FAKE, >0:other adjoint approximation */
(PID.TID 0000.0001)                       0
(PID.TID 0000.0001)     ;
(PID.TID 0000.0001) dumpAdVarExch = /* control adexch before dumpinp */
(PID.TID 0000.0001)                       2
(PID.TID 0000.0001)     ;
(PID.TID 0000.0001) mon_AdVarExch = /* control adexch before monitor */
(PID.TID 0000.0001)                       2
(PID.TID 0000.0001)     ;
(PID.TID 0000.0001) viscFacInFw = /* viscosity factor for forward model */
(PID.TID 0000.0001)                 1.000000000000000E+00
(PID.TID 0000.0001)     ;
(PID.TID 0000.0001) viscFacInAd = /* viscosity factor for adjoint */
(PID.TID 0000.0001)                 1.000000000000000E+00
(PID.TID 0000.0001)     ;
(PID.TID 0000.0001) SIregFacInAd = /* sea ice factor for adjoint model */
(PID.TID 0000.0001)                 1.234567000000000E+05
(PID.TID 0000.0001)     ;
(PID.TID 0000.0001) SIregFacInFw = /* sea ice factor for forward model */
(PID.TID 0000.0001)                 1.234567000000000E+05
(PID.TID 0000.0001)     ;
(PID.TID 0000.0001) 
(PID.TID 0000.0001) OPTIM_READPARMS: opening data.optim
(PID.TID 0000.0001)  OPEN_COPY_DATA_FILE: opening file data.optim
(PID.TID 0000.0001) // =======================================================
(PID.TID 0000.0001) // Parameter file "data.optim"
(PID.TID 0000.0001) // =======================================================
(PID.TID 0000.0001) >#
(PID.TID 0000.0001) ># ********************************
(PID.TID 0000.0001) ># Off-line optimization parameters
(PID.TID 0000.0001) ># ********************************
(PID.TID 0000.0001) > &OPTIM
(PID.TID 0000.0001) > optimcycle=0,
(PID.TID 0000.0001) > /
(PID.TID 0000.0001) 
(PID.TID 0000.0001) OPTIM_READPARMS: finished reading data.optim
(PID.TID 0000.0001) CTRL_READPARMS: opening data.ctrl
(PID.TID 0000.0001)  OPEN_COPY_DATA_FILE: opening file data.ctrl
(PID.TID 0000.0001) // =======================================================
(PID.TID 0000.0001) // Parameter file "data.ctrl"
(PID.TID 0000.0001) // =======================================================
(PID.TID 0000.0001) ># *********************
(PID.TID 0000.0001) ># general parameters and
(PID.TID 0000.0001) ># non-default ECCO legacy control variables
(PID.TID 0000.0001) ># *********************
(PID.TID 0000.0001) > &CTRL_NML
(PID.TID 0000.0001) >  doMainUnpack=.FALSE.,
(PID.TID 0000.0001) >  doMainPack=.FALSE.,
(PID.TID 0000.0001) >  ctrlprec = 32,
(PID.TID 0000.0001) > /
(PID.TID 0000.0001) >#
(PID.TID 0000.0001) ># *********************
(PID.TID 0000.0001) ># names for ctrl_pack/unpack
(PID.TID 0000.0001) ># *********************
(PID.TID 0000.0001) > &CTRL_PACKNAMES
(PID.TID 0000.0001) > /
(PID.TID 0000.0001) >#
(PID.TID 0000.0001) ># *********************
(PID.TID 0000.0001) ># names for CTRL_GENARR, CTRL_GENTIM
(PID.TID 0000.0001) ># *********************
(PID.TID 0000.0001) > &CTRL_NML_GENARR
(PID.TID 0000.0001) > xx_gentim2d_file(1)       = 'xx_atemp',
(PID.TID 0000.0001) > xx_gentim2d_weight(1)     = 'ones_32b.bin',
(PID.TID 0000.0001) >#
(PID.TID 0000.0001) > xx_gentim2d_file(2)       = 'xx_swdown',
(PID.TID 0000.0001) > xx_gentim2d_weight(2)     = 'ones_32b.bin',
(PID.TID 0000.0001) >#
(PID.TID 0000.0001) > xx_genarr2d_file(1)       = 'xx_siheff',
(PID.TID 0000.0001) > xx_genarr2d_weight(1)     = 'ones_32b.bin',
(PID.TID 0000.0001) >#
(PID.TID 0000.0001) > /
(PID.TID 0000.0001) 
(PID.TID 0000.0001) CTRL_READPARMS: finished reading data.ctrl
(PID.TID 0000.0001) read-write ctrl files from current run directory
(PID.TID 0000.0001) COST_READPARMS: opening data.cost
(PID.TID 0000.0001)  OPEN_COPY_DATA_FILE: opening file data.cost
(PID.TID 0000.0001) // =======================================================
(PID.TID 0000.0001) // Parameter file "data.cost"
(PID.TID 0000.0001) // =======================================================
(PID.TID 0000.0001) > &COST_NML
(PID.TID 0000.0001) > /
(PID.TID 0000.0001) 
(PID.TID 0000.0001) COST_READPARMS: finished reading data.cost
(PID.TID 0000.0001) // =======================================================
(PID.TID 0000.0001) // cost configuration  >>> START <<<
(PID.TID 0000.0001) // =======================================================
(PID.TID 0000.0001) lastinterval =   /* cost interval over which to average ( s ). */
(PID.TID 0000.0001)                 2.592000000000000E+06
(PID.TID 0000.0001)     ;
(PID.TID 0000.0001) cost_mask_file = /* file name of cost mask file */
(PID.TID 0000.0001)               ''
(PID.TID 0000.0001)     ;
(PID.TID 0000.0001) // =======================================================
(PID.TID 0000.0001) // cost configuration  >>> END <<<
(PID.TID 0000.0001) // =======================================================
(PID.TID 0000.0001) 
(PID.TID 0000.0001) GRDCHK_READPARMS: opening data.grdchk
(PID.TID 0000.0001)  OPEN_COPY_DATA_FILE: opening file data.grdchk
(PID.TID 0000.0001) // =======================================================
(PID.TID 0000.0001) // Parameter file "data.grdchk"
(PID.TID 0000.0001) // =======================================================
(PID.TID 0000.0001) > &GRDCHK_NML
(PID.TID 0000.0001) > grdchk_eps       = 1.d-6,
(PID.TID 0000.0001) > iglopos          = 10,
(PID.TID 0000.0001) > jglopos          = 10,
(PID.TID 0000.0001) > iGloTile         = 2,
(PID.TID 0000.0001) > jGloTile         = 2,
(PID.TID 0000.0001) > nbeg             = 1,
(PID.TID 0000.0001) > nstep            = 1,
(PID.TID 0000.0001) > nend             = 4,
(PID.TID 0000.0001) >#grdchkvarname    = "xx_atemp",
(PID.TID 0000.0001) >#grdchkvarname    = "xx_swdown",
(PID.TID 0000.0001) > grdchkvarname    = "xx_siheff",
(PID.TID 0000.0001) > /
(PID.TID 0000.0001) 
(PID.TID 0000.0001) GRDCHK_READPARMS: finished reading data.grdchk
(PID.TID 0000.0001)  DIAGNOSTICS_READPARMS: opening data.diagnostics
(PID.TID 0000.0001)  OPEN_COPY_DATA_FILE: opening file data.diagnostics
(PID.TID 0000.0001) // =======================================================
(PID.TID 0000.0001) // Parameter file "data.diagnostics"
(PID.TID 0000.0001) // =======================================================
(PID.TID 0000.0001) ># Diagnostic Package Choices
(PID.TID 0000.0001) >#--------------------
(PID.TID 0000.0001) >#  dumpAtLast (logical): always write output at the end of simulation (default=F)
(PID.TID 0000.0001) >#  diag_mnc   (logical): write to NetCDF files (default=useMNC)
(PID.TID 0000.0001) >#--for each output-stream:
(PID.TID 0000.0001) >#  fileName(n) : prefix of the output file name (max 80c long) for outp.stream n
(PID.TID 0000.0001) >#  frequency(n):< 0 : write snap-shot output every |frequency| seconds
(PID.TID 0000.0001) >#               > 0 : write time-average output every frequency seconds
(PID.TID 0000.0001) >#  timePhase(n)     : write at time = timePhase + multiple of |frequency|
(PID.TID 0000.0001) >#    averagingFreq  : frequency (in s) for periodic averaging interval
(PID.TID 0000.0001) >#    averagingPhase : phase     (in s) for periodic averaging interval
(PID.TID 0000.0001) >#    repeatCycle    : number of averaging intervals in 1 cycle
(PID.TID 0000.0001) >#  levels(:,n) : list of levels to write to file (Notes: declared as REAL)
(PID.TID 0000.0001) >#                when this entry is missing, select all common levels of this list
(PID.TID 0000.0001) >#  fields(:,n) : list of selected diagnostics fields (8.c) in outp.stream n
(PID.TID 0000.0001) >#                (see "available_diagnostics.log" file for the full list of diags)
(PID.TID 0000.0001) >#  missing_value(n) : missing value for real-type fields in output file "n"
(PID.TID 0000.0001) >#  fileFlags(n)     : specific code (8c string) for output file "n"
(PID.TID 0000.0001) >#--------------------
(PID.TID 0000.0001) ># This example dumps EXF diagnostics as snapshot after 10 time-steps
(PID.TID 0000.0001) ># Note: EXF air-sea fluxes over Sea-Ice are wrong
(PID.TID 0000.0001) > &DIAGNOSTICS_LIST
(PID.TID 0000.0001) >   dumpAtLast  = .TRUE.,
(PID.TID 0000.0001) >#--
(PID.TID 0000.0001) >  fields(1:5,1) = 'ADJarea ','ADJheff ','ADJhsnow',
(PID.TID 0000.0001) >                  'ADJuice ','ADJvice',
(PID.TID 0000.0001) >   fileName(1)  = 'ADJsiDiags',
(PID.TID 0000.0001) >  frequency(1)  = -21600.,
(PID.TID 0000.0001) >  timePhase(1)  = 0.,
(PID.TID 0000.0001) >
(PID.TID 0000.0001) >#- with pkg/seaice:
(PID.TID 0000.0001) >  fields(1:8,2)  = 'SIarea  ','SIheff  ','THETA   ','SItices ',
(PID.TID 0000.0001) >#                  'SIuice  ','SIvice  ','SIhsnow ',
(PID.TID 0000.0001) >#                  'oceQnet ','oceQsw  ','oceFWflx','oceSflux',
(PID.TID 0000.0001) >                   'SIqnet  ','SIqsw   ','SIempmr ','oceSflux',
(PID.TID 0000.0001) >   fileName(2) = 'iceDiag',
(PID.TID 0000.0001) >  frequency(2) =  43200.,
(PID.TID 0000.0001) >  missing_value(2) = -999.,
(PID.TID 0000.0001) >
(PID.TID 0000.0001) >  fields(1:10,3) = 'SIarea  ','SIheff  ','THETA   ','SItices ',
(PID.TID 0000.0001) >                   'SIqnet  ','SIqsw   ','SIempmr ','oceSflux',
(PID.TID 0000.0001) >                   'SIatmQnt','SIatmFW ',
(PID.TID 0000.0001) >#  fileName(3) = 'snapshot',
(PID.TID 0000.0001) >  frequency(3) = -43200.,
(PID.TID 0000.0001) >  timePhase(3) =      0.,
(PID.TID 0000.0001) >  missing_value(3) = -999.,
(PID.TID 0000.0001) >
(PID.TID 0000.0001) > /
(PID.TID 0000.0001) >
(PID.TID 0000.0001) >#--------------------
(PID.TID 0000.0001) ># Parameter for Diagnostics of per level statistics:
(PID.TID 0000.0001) >#--------------------
(PID.TID 0000.0001) >#  diagSt_mnc (logical): write stat-diags to NetCDF files (default=diag_mnc)
(PID.TID 0000.0001) >#  diagSt_regMaskFile : file containing the region-mask to read-in
(PID.TID 0000.0001) >#  nSetRegMskFile   : number of region-mask sets within the region-mask file
(PID.TID 0000.0001) >#  set_regMask(i)   : region-mask set-index that identifies the region "i"
(PID.TID 0000.0001) >#  val_regMask(i)   : region "i" identifier value in the region mask
(PID.TID 0000.0001) >#--for each output-stream:
(PID.TID 0000.0001) >#  stat_fName(n) : prefix of the output file name (max 80c long) for outp.stream n
(PID.TID 0000.0001) >#  stat_freq(n):< 0 : write snap-shot output every |stat_freq| seconds
(PID.TID 0000.0001) >#               > 0 : write time-average output every stat_freq seconds
(PID.TID 0000.0001) >#  stat_phase(n)    : write at time = stat_phase + multiple of |stat_freq|
(PID.TID 0000.0001) >#  stat_region(:,n) : list of "regions" (default: 1 region only=global)
(PID.TID 0000.0001) >#  stat_fields(:,n) : list of selected diagnostics fields (8.c) in outp.stream n
(PID.TID 0000.0001) >#                (see "available_diagnostics.log" file for the full list of diags)
(PID.TID 0000.0001) >#--------------------
(PID.TID 0000.0001) > &DIAG_STATIS_PARMS
(PID.TID 0000.0001) >#- with pkg/thsice:
(PID.TID 0000.0001) >#stat_fields(1:12,1) = 'SI_Fract','SI_Thick','SI_SnowH','THETA   ',
(PID.TID 0000.0001) >#stat_fields(1:11,1) = 'SI_Fract','SI_Thick','THETA   ',
(PID.TID 0000.0001) >#                      'SI_Tsrf ','SI_Tice1','SI_Tice2',
(PID.TID 0000.0001) >#                      'SIflx2oc','SIfrw2oc','SIsaltFx',
(PID.TID 0000.0001) >#                      'SIflxAtm','SIfrwAtm',
(PID.TID 0000.0001) >#- with pkg/seaice:
(PID.TID 0000.0001) >#stat_fields(1:11,1) = 'SIarea  ','SIheff  ','SIhsnow ',
(PID.TID 0000.0001) > stat_fields(1:8,1)  = 'SIarea  ','SIheff  ',
(PID.TID 0000.0001) >                       'THETA   ','SItices ',
(PID.TID 0000.0001) >#                      'oceQnet ','oceQsw  ','oceFWflx','oceSflux',
(PID.TID 0000.0001) >                       'SIqnet  ','SIqsw   ','SIempmr ','oceSflux',
(PID.TID 0000.0001) >#- comment out SIatmQnt (not filled in seaice_growth_adx.F):
(PID.TID 0000.0001) >#                      'SIatmQnt','SIatmFW ',
(PID.TID 0000.0001) >  stat_fName(1) = 'iceStDiag',
(PID.TID 0000.0001) >   stat_freq(1) = 43200.,
(PID.TID 0000.0001) >  stat_phase(1) = 3600.,
(PID.TID 0000.0001) > /
(PID.TID 0000.0001) 
(PID.TID 0000.0001) S/R DIAGNOSTICS_READPARMS, read namelist "diagnostics_list": start
(PID.TID 0000.0001) S/R DIAGNOSTICS_READPARMS, read namelist "diagnostics_list": OK
(PID.TID 0000.0001) S/R DIAGNOSTICS_READPARMS, read namelist "DIAG_STATIS_PARMS": start
(PID.TID 0000.0001) S/R DIAGNOSTICS_READPARMS, read namelist "DIAG_STATIS_PARMS": OK
(PID.TID 0000.0001)  DIAGNOSTICS_READPARMS: global parameter summary:
(PID.TID 0000.0001)  dumpAtLast = /* always write time-ave diags at the end */
(PID.TID 0000.0001)                   T
(PID.TID 0000.0001)     ;
(PID.TID 0000.0001)  diag_mnc =   /* write NetCDF output files */
(PID.TID 0000.0001)                   F
(PID.TID 0000.0001)     ;
(PID.TID 0000.0001)  useMissingValue = /* put MissingValue where mask = 0 */
(PID.TID 0000.0001)                   F
(PID.TID 0000.0001)     ;
(PID.TID 0000.0001)  diagCG_maxIters = /* max number of iters in diag_cg2d */
(PID.TID 0000.0001)                     500
(PID.TID 0000.0001)     ;
(PID.TID 0000.0001)  diagCG_resTarget = /* residual target for diag_cg2d */
(PID.TID 0000.0001)                 1.000000000000000E-12
(PID.TID 0000.0001)     ;
(PID.TID 0000.0001)  diagCG_pcOffDFac = /* preconditioner off-diagonal factor */
(PID.TID 0000.0001)                 9.611687812379854E-01
(PID.TID 0000.0001)     ;
(PID.TID 0000.0001) -----------------------------------------------------
(PID.TID 0000.0001)  DIAGNOSTICS_READPARMS: active diagnostics summary:
(PID.TID 0000.0001) -----------------------------------------------------
(PID.TID 0000.0001) Creating Output Stream: ADJsiDiags
(PID.TID 0000.0001) Output Frequency:     -21600.000000 ; Phase:           0.000000
(PID.TID 0000.0001)  Averaging Freq.:          0.000000 , Phase:           0.000000 , Cycle:   1
(PID.TID 0000.0001)  missing value: -9.990000000000E+02
(PID.TID 0000.0001)  Levels:    will be set later
(PID.TID 0000.0001)  Fields:    ADJarea  ADJheff  ADJhsnow ADJuice  ADJvice
(PID.TID 0000.0001) Creating Output Stream: iceDiag
(PID.TID 0000.0001) Output Frequency:      43200.000000 ; Phase:           0.000000
(PID.TID 0000.0001)  Averaging Freq.:      43200.000000 , Phase:           0.000000 , Cycle:   1
(PID.TID 0000.0001)  missing value: -9.990000000000E+02
(PID.TID 0000.0001)  Levels:    will be set later
(PID.TID 0000.0001)  Fields:    SIarea   SIheff   THETA    SItices  SIqnet   SIqsw    SIempmr  oceSflux
(PID.TID 0000.0001) -----------------------------------------------------
(PID.TID 0000.0001)  DIAGNOSTICS_READPARMS: statistics diags. summary:
(PID.TID 0000.0001) Creating Stats. Output Stream: iceStDiag
(PID.TID 0000.0001) Output Frequency:      43200.000000 ; Phase:        3600.000000
(PID.TID 0000.0001)  Regions:   0
(PID.TID 0000.0001)  Fields:    SIarea   SIheff   THETA    SItices  SIqnet   SIqsw    SIempmr  oceSflux
(PID.TID 0000.0001) -----------------------------------------------------
(PID.TID 0000.0001) 
(PID.TID 0000.0001) SET_PARMS: done
(PID.TID 0000.0001) Enter INI_VERTICAL_GRID: setInterFDr=    T ; setCenterDr=    F
(PID.TID 0000.0001) %MON XC_max                       =   3.9750000000000E+05
(PID.TID 0000.0001) %MON XC_min                       =   2.5000000000000E+03
(PID.TID 0000.0001) %MON XC_mean                      =   2.0000000000000E+05
(PID.TID 0000.0001) %MON XC_sd                        =   1.1546103238755E+05
(PID.TID 0000.0001) %MON XG_max                       =   3.9500000000000E+05
(PID.TID 0000.0001) %MON XG_min                       =   0.0000000000000E+00
(PID.TID 0000.0001) %MON XG_mean                      =   1.9750000000000E+05
(PID.TID 0000.0001) %MON XG_sd                        =   1.1546103238755E+05
(PID.TID 0000.0001) %MON DXC_max                      =   5.0000000000000E+03
(PID.TID 0000.0001) %MON DXC_min                      =   5.0000000000000E+03
(PID.TID 0000.0001) %MON DXC_mean                     =   5.0000000000000E+03
(PID.TID 0000.0001) %MON DXC_sd                       =   0.0000000000000E+00
(PID.TID 0000.0001) %MON DXF_max                      =   5.0000000000000E+03
(PID.TID 0000.0001) %MON DXF_min                      =   5.0000000000000E+03
(PID.TID 0000.0001) %MON DXF_mean                     =   5.0000000000000E+03
(PID.TID 0000.0001) %MON DXF_sd                       =   0.0000000000000E+00
(PID.TID 0000.0001) %MON DXG_max                      =   5.0000000000000E+03
(PID.TID 0000.0001) %MON DXG_min                      =   5.0000000000000E+03
(PID.TID 0000.0001) %MON DXG_mean                     =   5.0000000000000E+03
(PID.TID 0000.0001) %MON DXG_sd                       =   0.0000000000000E+00
(PID.TID 0000.0001) %MON DXV_max                      =   5.0000000000000E+03
(PID.TID 0000.0001) %MON DXV_min                      =   5.0000000000000E+03
(PID.TID 0000.0001) %MON DXV_mean                     =   5.0000000000000E+03
(PID.TID 0000.0001) %MON DXV_sd                       =   0.0000000000000E+00
(PID.TID 0000.0001) %MON YC_max                       =   9.7500000000000E+04
(PID.TID 0000.0001) %MON YC_min                       =  -1.0750000000000E+05
(PID.TID 0000.0001) %MON YC_mean                      =  -5.0000000000000E+03
(PID.TID 0000.0001) %MON YC_sd                        =   6.0604592785256E+04
(PID.TID 0000.0001) %MON YG_max                       =   9.5000000000000E+04
(PID.TID 0000.0001) %MON YG_min                       =  -1.1000000000000E+05
(PID.TID 0000.0001) %MON YG_mean                      =  -7.5000000000000E+03
(PID.TID 0000.0001) %MON YG_sd                        =   6.0604592785256E+04
(PID.TID 0000.0001) %MON DYC_max                      =   5.0000000000000E+03
(PID.TID 0000.0001) %MON DYC_min                      =   5.0000000000000E+03
(PID.TID 0000.0001) %MON DYC_mean                     =   5.0000000000000E+03
(PID.TID 0000.0001) %MON DYC_sd                       =   0.0000000000000E+00
(PID.TID 0000.0001) %MON DYF_max                      =   5.0000000000000E+03
(PID.TID 0000.0001) %MON DYF_min                      =   5.0000000000000E+03
(PID.TID 0000.0001) %MON DYF_mean                     =   5.0000000000000E+03
(PID.TID 0000.0001) %MON DYF_sd                       =   0.0000000000000E+00
(PID.TID 0000.0001) %MON DYG_max                      =   5.0000000000000E+03
(PID.TID 0000.0001) %MON DYG_min                      =   5.0000000000000E+03
(PID.TID 0000.0001) %MON DYG_mean                     =   5.0000000000000E+03
(PID.TID 0000.0001) %MON DYG_sd                       =   0.0000000000000E+00
(PID.TID 0000.0001) %MON DYU_max                      =   5.0000000000000E+03
(PID.TID 0000.0001) %MON DYU_min                      =   5.0000000000000E+03
(PID.TID 0000.0001) %MON DYU_mean                     =   5.0000000000000E+03
(PID.TID 0000.0001) %MON DYU_sd                       =   0.0000000000000E+00
(PID.TID 0000.0001) %MON RA_max                       =   2.5000000000000E+07
(PID.TID 0000.0001) %MON RA_min                       =   2.5000000000000E+07
(PID.TID 0000.0001) %MON RA_mean                      =   2.5000000000000E+07
(PID.TID 0000.0001) %MON RA_sd                        =   3.7252902984619E-09
(PID.TID 0000.0001) %MON RAW_max                      =   2.5000000000000E+07
(PID.TID 0000.0001) %MON RAW_min                      =   2.5000000000000E+07
(PID.TID 0000.0001) %MON RAW_mean                     =   2.5000000000000E+07
(PID.TID 0000.0001) %MON RAW_sd                       =   3.7252902984619E-09
(PID.TID 0000.0001) %MON RAS_max                      =   2.5000000000000E+07
(PID.TID 0000.0001) %MON RAS_min                      =   2.5000000000000E+07
(PID.TID 0000.0001) %MON RAS_mean                     =   2.5000000000000E+07
(PID.TID 0000.0001) %MON RAS_sd                       =   3.7252902984619E-09
(PID.TID 0000.0001) %MON RAZ_max                      =   2.5000000000000E+07
(PID.TID 0000.0001) %MON RAZ_min                      =   2.5000000000000E+07
(PID.TID 0000.0001) %MON RAZ_mean                     =   2.5000000000000E+07
(PID.TID 0000.0001) %MON RAZ_sd                       =   3.7252902984619E-09
(PID.TID 0000.0001) %MON AngleCS_max                  =   1.0000000000000E+00
(PID.TID 0000.0001) %MON AngleCS_min                  =   1.0000000000000E+00
(PID.TID 0000.0001) %MON AngleCS_mean                 =   1.0000000000000E+00
(PID.TID 0000.0001) %MON AngleCS_sd                   =   0.0000000000000E+00
(PID.TID 0000.0001) %MON AngleSN_max                  =   0.0000000000000E+00
(PID.TID 0000.0001) %MON AngleSN_min                  =   0.0000000000000E+00
(PID.TID 0000.0001) %MON AngleSN_mean                 =   0.0000000000000E+00
(PID.TID 0000.0001) %MON AngleSN_sd                   =   0.0000000000000E+00
(PID.TID 0000.0001) 
(PID.TID 0000.0001) // =======================================================
(PID.TID 0000.0001) // Calendar configuration >>> START <<<
(PID.TID 0000.0001) // =======================================================
(PID.TID 0000.0001) 
(PID.TID 0000.0001) modelstart = /* Start time of the model integration [s] */
(PID.TID 0000.0001)                 0.000000000000000E+00
(PID.TID 0000.0001)     ;
(PID.TID 0000.0001) modelend  = /* End time of the model integration [s] */
(PID.TID 0000.0001)                 4.320000000000000E+04
(PID.TID 0000.0001)     ;
(PID.TID 0000.0001) modelStep = /* Time interval for a model forward step [s] */
(PID.TID 0000.0001)                 3.600000000000000E+03
(PID.TID 0000.0001)     ;
(PID.TID 0000.0001) usingGregorianCalendar= /* Calendar Type: Gregorian Calendar */
(PID.TID 0000.0001)                   T
(PID.TID 0000.0001)     ;
(PID.TID 0000.0001) usingJulianCalendar = /* Calendar Type: Julian Calendar */
(PID.TID 0000.0001)                   F
(PID.TID 0000.0001)     ;
(PID.TID 0000.0001) usingNoLeapYearCal  = /* Calendar Type: without Leap Year */
(PID.TID 0000.0001)                   F
(PID.TID 0000.0001)     ;
(PID.TID 0000.0001) usingModelCalendar  = /* Calendar Type: Model Calendar */
(PID.TID 0000.0001)                   F
(PID.TID 0000.0001)     ;
(PID.TID 0000.0001) modelStartDate YYYYMMDD = /* Model start date YYYY-MM-DD */
(PID.TID 0000.0001)                19790101
(PID.TID 0000.0001)     ;
(PID.TID 0000.0001)   modelStartDate HHMMSS = /* Model start date HH-MM-SS  */
(PID.TID 0000.0001)                       0
(PID.TID 0000.0001)     ;
(PID.TID 0000.0001) modelEndDate   YYYYMMDD = /* Model end date YYYY-MM-DD */
(PID.TID 0000.0001)                19790101
(PID.TID 0000.0001)     ;
(PID.TID 0000.0001)   modelEndDate   HHMMSS = /* Model end date HH-MM-SS  */
(PID.TID 0000.0001)                  120000
(PID.TID 0000.0001)     ;
(PID.TID 0000.0001) intyears = /* Number of calendar years affected by the integration */
(PID.TID 0000.0001)                       1
(PID.TID 0000.0001)     ;
(PID.TID 0000.0001) intmonths= /* Number of calendar months affected by the integration */
(PID.TID 0000.0001)                       1
(PID.TID 0000.0001)     ;
(PID.TID 0000.0001) intdays = /* Number of calendar days affected by the integration */
(PID.TID 0000.0001)                       1
(PID.TID 0000.0001)     ;
(PID.TID 0000.0001) modelIter0 = /* Base timestep number  */
(PID.TID 0000.0001)                       0
(PID.TID 0000.0001)     ;
(PID.TID 0000.0001) modelIterEnd = /* Final timestep number  */
(PID.TID 0000.0001)                      12
(PID.TID 0000.0001)     ;
(PID.TID 0000.0001) modelIntSteps= /* Number of model timesteps  */
(PID.TID 0000.0001)                      12
(PID.TID 0000.0001)     ;
(PID.TID 0000.0001) 
(PID.TID 0000.0001) // =======================================================
(PID.TID 0000.0001) // Calendar configuration  >>> END <<<
(PID.TID 0000.0001) // =======================================================
(PID.TID 0000.0001) 
(PID.TID 0000.0001) GAD_INIT_FIXED: GAD_OlMinSize=  0  0  1
(PID.TID 0000.0001) 
(PID.TID 0000.0001) // ===================================
(PID.TID 0000.0001) // GAD parameters :
(PID.TID 0000.0001) // ===================================
(PID.TID 0000.0001) tempAdvScheme =   /* Temp. Horiz.Advection scheme selector */
(PID.TID 0000.0001)                       2
(PID.TID 0000.0001)     ;
(PID.TID 0000.0001) tempVertAdvScheme =   /* Temp. Vert. Advection scheme selector */
(PID.TID 0000.0001)                       2
(PID.TID 0000.0001)     ;
(PID.TID 0000.0001) tempMultiDimAdvec =   /* use Muti-Dim Advec method for Temp */
(PID.TID 0000.0001)                   F
(PID.TID 0000.0001)     ;
(PID.TID 0000.0001) tempSOM_Advection = /* use 2nd Order Moment Advection for Temp */
(PID.TID 0000.0001)                   F
(PID.TID 0000.0001)     ;
(PID.TID 0000.0001) AdamsBashforthGt = /* apply Adams-Bashforth extrapolation on Gt */
(PID.TID 0000.0001)                   T
(PID.TID 0000.0001)     ;
(PID.TID 0000.0001) AdamsBashforth_T = /* apply Adams-Bashforth extrapolation on Temp */
(PID.TID 0000.0001)                   F
(PID.TID 0000.0001)     ;
(PID.TID 0000.0001) saltAdvScheme =   /* Salt. Horiz.advection scheme selector */
(PID.TID 0000.0001)                       2
(PID.TID 0000.0001)     ;
(PID.TID 0000.0001) saltVertAdvScheme =   /* Salt. Vert. Advection scheme selector */
(PID.TID 0000.0001)                       2
(PID.TID 0000.0001)     ;
(PID.TID 0000.0001) saltMultiDimAdvec =   /* use Muti-Dim Advec method for Salt */
(PID.TID 0000.0001)                   F
(PID.TID 0000.0001)     ;
(PID.TID 0000.0001) saltSOM_Advection = /* use 2nd Order Moment Advection for Salt */
(PID.TID 0000.0001)                   F
(PID.TID 0000.0001)     ;
(PID.TID 0000.0001) AdamsBashforthGs = /* apply Adams-Bashforth extrapolation on Gs */
(PID.TID 0000.0001)                   F
(PID.TID 0000.0001)     ;
(PID.TID 0000.0001) AdamsBashforth_S = /* apply Adams-Bashforth extrapolation on Salt */
(PID.TID 0000.0001)                   F
(PID.TID 0000.0001)     ;
(PID.TID 0000.0001) // ===================================
(PID.TID 0000.0001) 
(PID.TID 0000.0001) // =======================================================
(PID.TID 0000.0001) // External forcing (EXF) configuration >>> START <<<
(PID.TID 0000.0001) // =======================================================
(PID.TID 0000.0001) 
(PID.TID 0000.0001)  EXF general parameters:
(PID.TID 0000.0001) 
(PID.TID 0000.0001) exf_iprec = /* exf file precision */
(PID.TID 0000.0001)                      64
(PID.TID 0000.0001)     ;
(PID.TID 0000.0001) useExfYearlyFields = /* add extension _YEAR to input file names */
(PID.TID 0000.0001)                   F
(PID.TID 0000.0001)     ;
(PID.TID 0000.0001) twoDigitYear = /* use 2-digit year extension */
(PID.TID 0000.0001)                   F
(PID.TID 0000.0001)     ;
(PID.TID 0000.0001) useExfCheckRange = /* check for fields range */
(PID.TID 0000.0001)                   T
(PID.TID 0000.0001)     ;
(PID.TID 0000.0001) diags_opOceWeighted = /* weight flux diags by open-ocean fraction */
(PID.TID 0000.0001)                   T
(PID.TID 0000.0001)     ;
(PID.TID 0000.0001) exf_debugLev = /* select EXF-debug printing level */
(PID.TID 0000.0001)                       1
(PID.TID 0000.0001)     ;
(PID.TID 0000.0001) exf_monFreq  = /* EXF monitor frequency [ s ] */
(PID.TID 0000.0001)                 8.640000000000000E+07
(PID.TID 0000.0001)     ;
(PID.TID 0000.0001) exf_adjMonSelect = /* select group of exf AD-variables to monitor */
(PID.TID 0000.0001)                       1
(PID.TID 0000.0001)     ;
(PID.TID 0000.0001) repeatPeriod = /* period for cycling forcing dataset [ s ] */
(PID.TID 0000.0001)                 2.635200000000000E+06
(PID.TID 0000.0001)     ;
(PID.TID 0000.0001) climTempFreeze= /* Minimum climatological temperature [deg.C] */
(PID.TID 0000.0001)                -1.900000000000000E+00
(PID.TID 0000.0001)     ;
(PID.TID 0000.0001) windStressMax = /* Maximum absolute windstress [ Pa ] */
(PID.TID 0000.0001)                 2.000000000000000E+00
(PID.TID 0000.0001)     ;
(PID.TID 0000.0001) stressIsOnCgrid = /* set u,v_stress on Arakawa C-grid */
(PID.TID 0000.0001)                   F
(PID.TID 0000.0001)     ;
(PID.TID 0000.0001) rotateStressOnAgrid = /* rotate u,v_stress on Arakawa A-grid */
(PID.TID 0000.0001)                   F
(PID.TID 0000.0001)     ;
(PID.TID 0000.0001) cen2kel = /* conversion of deg. Centigrade to Kelvin [K] */
(PID.TID 0000.0001)                 2.731500000000000E+02
(PID.TID 0000.0001)     ;
(PID.TID 0000.0001) gravity_mks= /* gravitational acceleration [m/s^2] */
(PID.TID 0000.0001)                 9.810000000000000E+00
(PID.TID 0000.0001)     ;
(PID.TID 0000.0001) atmrho =  /* mean atmospheric density [kg/m^3] */
(PID.TID 0000.0001)                 1.200000000000000E+00
(PID.TID 0000.0001)     ;
(PID.TID 0000.0001) atmcp =  /* mean atmospheric specific heat [J/kg/K] */
(PID.TID 0000.0001)                 1.005000000000000E+03
(PID.TID 0000.0001)     ;
(PID.TID 0000.0001) flamb =  /* latent heat of evaporation [J/kg] */
(PID.TID 0000.0001)                 2.500000000000000E+06
(PID.TID 0000.0001)     ;
(PID.TID 0000.0001) flami =  /* latent heat of pure-ice melting [J/kg] */
(PID.TID 0000.0001)                 3.340000000000000E+05
(PID.TID 0000.0001)     ;
(PID.TID 0000.0001) cvapor_fac = /* const. for Saturation calculation [?] */
(PID.TID 0000.0001)                 6.403800000000000E+05
(PID.TID 0000.0001)     ;
(PID.TID 0000.0001) cvapor_exp = /* const. for Saturation calculation [?] */
(PID.TID 0000.0001)                 5.107400000000000E+03
(PID.TID 0000.0001)     ;
(PID.TID 0000.0001) cvapor_fac_ice= /* const. for Saturation calculation [?] */
(PID.TID 0000.0001)                 1.163780000000000E+07
(PID.TID 0000.0001)     ;
(PID.TID 0000.0001) cvapor_exp_ice= /* const. for Saturation calculation [?] */
(PID.TID 0000.0001)                 5.897800000000000E+03
(PID.TID 0000.0001)     ;
(PID.TID 0000.0001) humid_fac = /* humidity coef. in virtual temp. [(kg/kg)^-1] */
(PID.TID 0000.0001)                 6.060000000000000E-01
(PID.TID 0000.0001)     ;
(PID.TID 0000.0001) gamma_blk = /* adiabatic lapse rate [?] */
(PID.TID 0000.0001)                 1.000000000000000E-02
(PID.TID 0000.0001)     ;
(PID.TID 0000.0001) saltsat = /* reduction of Qsat over salty water [-] */
(PID.TID 0000.0001)                 9.800000000000000E-01
(PID.TID 0000.0001)     ;
(PID.TID 0000.0001) noNegativeEvap = /* prevent negative Evaporation */
(PID.TID 0000.0001)                   F
(PID.TID 0000.0001)     ;
(PID.TID 0000.0001) sstExtrapol = /* extrapolation coeff from lev. 1 & 2 to surf [-] */
(PID.TID 0000.0001)                 0.000000000000000E+00
(PID.TID 0000.0001)     ;
(PID.TID 0000.0001) cDrag_1 = /* coef used in drag calculation [m/s] */
(PID.TID 0000.0001)                 2.700000000000000E-03
(PID.TID 0000.0001)     ;
(PID.TID 0000.0001) cDrag_2 = /* coef used in drag calculation [-] */
(PID.TID 0000.0001)                 1.420000000000000E-04
(PID.TID 0000.0001)     ;
(PID.TID 0000.0001) cDrag_3 = /* coef used in drag calculation [s/m] */
(PID.TID 0000.0001)                 7.640000000000000E-05
(PID.TID 0000.0001)     ;
(PID.TID 0000.0001) cDrag_8 = /* coef used in drag calculation [(s/m)^6] */
(PID.TID 0000.0001)                 1.234567000000000E+05
(PID.TID 0000.0001)     ;
(PID.TID 0000.0001) cDragMax = /* maximum drag (Large and Yeager, 2009) [-] */
(PID.TID 0000.0001)                 1.234567000000000E+05
(PID.TID 0000.0001)     ;
(PID.TID 0000.0001) umax = /* at maximum wind (Large and Yeager, 2009) [m/s] */
(PID.TID 0000.0001)                 1.234567000000000E+05
(PID.TID 0000.0001)     ;
(PID.TID 0000.0001) cStanton_1 = /* coef used in Stanton number calculation [-] */
(PID.TID 0000.0001)                 3.270000000000000E-02
(PID.TID 0000.0001)     ;
(PID.TID 0000.0001) cStanton_2 = /* coef used in Stanton number calculation [-] */
(PID.TID 0000.0001)                 1.800000000000000E-02
(PID.TID 0000.0001)     ;
(PID.TID 0000.0001) cDalton = /* Dalton number [-] */
(PID.TID 0000.0001)                 3.460000000000000E-02
(PID.TID 0000.0001)     ;
(PID.TID 0000.0001) exf_scal_BulkCdn= /* Drag coefficient scaling factor [-] */
(PID.TID 0000.0001)                 1.000000000000000E+00
(PID.TID 0000.0001)     ;
(PID.TID 0000.0001) zolmin = /* minimum stability parameter [?] */
(PID.TID 0000.0001)                -1.000000000000000E+02
(PID.TID 0000.0001)     ;
(PID.TID 0000.0001) psim_fac = /* coef used in turbulent fluxes calculation [-] */
(PID.TID 0000.0001)                 5.000000000000000E+00
(PID.TID 0000.0001)     ;
(PID.TID 0000.0001) zref =  /* reference height [ m ] */
(PID.TID 0000.0001)                 1.000000000000000E+01
(PID.TID 0000.0001)     ;
(PID.TID 0000.0001) hu =  /* height of mean wind [ m ] */
(PID.TID 0000.0001)                 1.000000000000000E+01
(PID.TID 0000.0001)     ;
(PID.TID 0000.0001) ht =  /* height of mean temperature [ m ] */
(PID.TID 0000.0001)                 2.000000000000000E+00
(PID.TID 0000.0001)     ;
(PID.TID 0000.0001) hq =  /* height of mean spec.humidity [ m ] */
(PID.TID 0000.0001)                 2.000000000000000E+00
(PID.TID 0000.0001)     ;
(PID.TID 0000.0001) uMin = /* minimum wind speed [m/s] */
(PID.TID 0000.0001)                 5.000000000000000E-01
(PID.TID 0000.0001)     ;
(PID.TID 0000.0001) useStabilityFct_overIce= /* transfert Coeffs over sea-ice depend on stability */
(PID.TID 0000.0001)                   F
(PID.TID 0000.0001)     ;
(PID.TID 0000.0001) exf_iceCd = /* drag coefficient over sea-ice (fixed) [-] */
(PID.TID 0000.0001)                 1.630000000000000E-03
(PID.TID 0000.0001)     ;
(PID.TID 0000.0001) exf_iceCe = /* transfert coeff. over sea-ice, for Evap (fixed) [-] */
(PID.TID 0000.0001)                 1.630000000000000E-03
(PID.TID 0000.0001)     ;
(PID.TID 0000.0001) exf_iceCh = /* transfert coeff. over sea-ice, Sens.Heat.(fixed)[-] */
(PID.TID 0000.0001)                 1.630000000000000E-03
(PID.TID 0000.0001)     ;
(PID.TID 0000.0001) exf_albedo =  /* Sea-water albedo [-] */
(PID.TID 0000.0001)                 1.000000000000000E-01
(PID.TID 0000.0001)     ;
(PID.TID 0000.0001) useExfZenAlbedo = /* Sea-water albedo varies with zenith angle */
(PID.TID 0000.0001)                   F
(PID.TID 0000.0001)     ;
(PID.TID 0000.0001) select_ZenAlbedo = /* Sea-water albedo computation method */
(PID.TID 0000.0001)                       0
(PID.TID 0000.0001)     ;
(PID.TID 0000.0001) useExfZenIncoming = /* compute incoming solar radiation */
(PID.TID 0000.0001)                   F
(PID.TID 0000.0001)     ;
(PID.TID 0000.0001) ocean_emissivity = /* longwave ocean-surface emissivity [-] */
(PID.TID 0000.0001)                 9.700176366843034E-01
(PID.TID 0000.0001)     ;
(PID.TID 0000.0001) ice_emissivity = /* longwave seaice emissivity [-] */
(PID.TID 0000.0001)                 9.500000000000000E-01
(PID.TID 0000.0001)     ;
(PID.TID 0000.0001) snow_emissivity = /* longwave snow  emissivity [-] */
(PID.TID 0000.0001)                 9.500000000000000E-01
(PID.TID 0000.0001)     ;
(PID.TID 0000.0001) 
(PID.TID 0000.0001)  EXF main CPP flags:
(PID.TID 0000.0001) 
(PID.TID 0000.0001) // USE_EXF_INTERPOLATION:          NOT defined
(PID.TID 0000.0001) // ALLOW_ATM_TEMP:                     defined
(PID.TID 0000.0001) // ALLOW_ATM_WIND (useAtmWind):        defined
(PID.TID 0000.0001) // ALLOW_DOWNWARD_RADIATION:           defined
(PID.TID 0000.0001) // ALLOW_BULKFORMULAE:                 defined
(PID.TID 0000.0001) 
(PID.TID 0000.0001)    Zonal wind forcing starts at                   -1317600.
(PID.TID 0000.0001)    Zonal wind forcing period is                    2635200.
(PID.TID 0000.0001)    Zonal wind forcing repeat-cycle is              2635200.
(PID.TID 0000.0001)    Zonal wind forcing is read from file:
(PID.TID 0000.0001)    >> windx.bin <<
(PID.TID 0000.0001) 
(PID.TID 0000.0001)    Meridional wind forcing starts at              -1317600.
(PID.TID 0000.0001)    Meridional wind forcing period is               2635200.
(PID.TID 0000.0001)    Meridional wind forcing repeat-cycle is         2635200.
(PID.TID 0000.0001)    Meridional wind forcing is read from file:
(PID.TID 0000.0001)    >> windy.bin <<
(PID.TID 0000.0001) 
(PID.TID 0000.0001)    Atmospheric temperature starts at              -1317600.
(PID.TID 0000.0001)    Atmospheric temperature period is               2635200.
(PID.TID 0000.0001)    Atmospheric temperature repeat-cycle is         2635200.
(PID.TID 0000.0001)    Atmospheric temperature is read from file:
(PID.TID 0000.0001)    >> tair_4x.bin <<
(PID.TID 0000.0001) 
(PID.TID 0000.0001)    Atmospheric specific humidity starts at        -1317600.
(PID.TID 0000.0001)    Atmospheric specific humidity period is         2635200.
(PID.TID 0000.0001)    Atmospheric specific humidity rep-cycle is      2635200.
(PID.TID 0000.0001)    Atmospheric specific humidity is read from file:
(PID.TID 0000.0001)    >> qa70_4x.bin <<
(PID.TID 0000.0001) 
(PID.TID 0000.0001) // ALLOW_READ_TURBFLUXES:          NOT defined
(PID.TID 0000.0001) // EXF_READ_EVAP:                  NOT defined
(PID.TID 0000.0001) 
(PID.TID 0000.0001)    Precipitation data starts at                   -1317600.
(PID.TID 0000.0001)    Precipitation data period is                    2635200.
(PID.TID 0000.0001)    Precipitation data repeat-cycle is              2635200.
(PID.TID 0000.0001)    Precipitation data is read from file:
(PID.TID 0000.0001)    >> const_00.bin <<
(PID.TID 0000.0001) 
(PID.TID 0000.0001) // ALLOW_RUNOFF:                       defined
(PID.TID 0000.0001) // ALLOW_RUNOFTEMP:                NOT defined
(PID.TID 0000.0001) // ALLOW_SALTFLX:                  NOT defined
(PID.TID 0000.0001) 
(PID.TID 0000.0001)    Downward shortwave flux starts at              -1317600.
(PID.TID 0000.0001)    Downward shortwave flux period is               2635200.
(PID.TID 0000.0001)    Downward shortwave flux repeat-cycle is         2635200.
(PID.TID 0000.0001)    Downward shortwave flux is read from file:
(PID.TID 0000.0001)    >> dsw_100.bin <<
(PID.TID 0000.0001) 
(PID.TID 0000.0001)    Downward longwave flux starts at               -1317600.
(PID.TID 0000.0001)    Downward longwave flux period is                2635200.
(PID.TID 0000.0001)    Downward longwave flux repeat-cycle is          2635200.
(PID.TID 0000.0001)    Downward longwave flux is read from file:
(PID.TID 0000.0001)    >> dlw_250.bin <<
(PID.TID 0000.0001) 
(PID.TID 0000.0001) // =======================================================
(PID.TID 0000.0001) // External forcing (EXF) climatology configuration :
(PID.TID 0000.0001) // =======================================================
(PID.TID 0000.0001) 
(PID.TID 0000.0001) // ALLOW_CLIMSST_RELAXATION:           defined
(PID.TID 0000.0001)    Climatological SST starts at                   -1317600.
(PID.TID 0000.0001)    Climatological SST period is                    2635200.
(PID.TID 0000.0001)    Climatological SST repeat-cycle is              2635200.
(PID.TID 0000.0001)    Climatological SST is read from file:
(PID.TID 0000.0001)    >> tocn.bin <<
(PID.TID 0000.0001) 
(PID.TID 0000.0001) // ALLOW_CLIMSSS_RELAXATION:           defined
(PID.TID 0000.0001)    climsss relaxation is NOT used
(PID.TID 0000.0001) 
(PID.TID 0000.0001) // =======================================================
(PID.TID 0000.0001) // External forcing (EXF) configuration  >>> END <<<
(PID.TID 0000.0001) // =======================================================
(PID.TID 0000.0001) 
(PID.TID 0000.0001) // =======================================================
(PID.TID 0000.0001) // Seaice configuration (SEAICE_PARM01) >>> START <<<
(PID.TID 0000.0001) // =======================================================
(PID.TID 0000.0001) 
(PID.TID 0000.0001)    Seaice time stepping configuration   > START <
(PID.TID 0000.0001)    ----------------------------------------------
(PID.TID 0000.0001) SEAICE_deltaTtherm= /* thermodynamic timestep */
(PID.TID 0000.0001)                 3.600000000000000E+03
(PID.TID 0000.0001)     ;
(PID.TID 0000.0001) SEAICE_deltaTdyn  = /* dynamic timestep */
(PID.TID 0000.0001)                 3.600000000000000E+03
(PID.TID 0000.0001)     ;
(PID.TID 0000.0001) SEAICE_deltaTevp  = /* EVP timestep */
(PID.TID 0000.0001)                 1.234567000000000E+05
(PID.TID 0000.0001)     ;
(PID.TID 0000.0001) SEAICEuseBDF2  = /* use backw. differencing for mom. eq. */
(PID.TID 0000.0001)                   F
(PID.TID 0000.0001)     ;
(PID.TID 0000.0001) SEAICEupdateOceanStress= /* update Ocean surf. stress */
(PID.TID 0000.0001)                   T
(PID.TID 0000.0001)     ;
(PID.TID 0000.0001) SEAICErestoreUnderIce  = /* restore T and S under ice */
(PID.TID 0000.0001)                   T
(PID.TID 0000.0001)     ;
(PID.TID 0000.0001) 
(PID.TID 0000.0001)    Seaice dynamics configuration   > START <
(PID.TID 0000.0001)    ------------------------------------------
(PID.TID 0000.0001) SEAICEuseDYNAMICS = /* use dynamics */
(PID.TID 0000.0001)                   T
(PID.TID 0000.0001)     ;
(PID.TID 0000.0001) model grid type   = /* type of sea ice model grid */
(PID.TID 0000.0001)               'C-GRID'
(PID.TID 0000.0001)     ;
(PID.TID 0000.0001) SEAICEuseStrImpCpl = /* use strongly implicit coupling */
(PID.TID 0000.0001)                   F
(PID.TID 0000.0001)     ;
(PID.TID 0000.0001) SEAICEusePicardAsPrecon = /* Picard as preconditioner */
(PID.TID 0000.0001)                   F
(PID.TID 0000.0001)     ;
(PID.TID 0000.0001) SEAICEuseLSR      = /* use default Picard-LSR solver */
(PID.TID 0000.0001)                   T
(PID.TID 0000.0001)     ;
(PID.TID 0000.0001) SEAICEuseLSRflex  = /* with residual norm criterion */
(PID.TID 0000.0001)                   F
(PID.TID 0000.0001)     ;
(PID.TID 0000.0001) SEAICEuseKrylov   = /* use Picard-Krylov solver */
(PID.TID 0000.0001)                   F
(PID.TID 0000.0001)     ;
(PID.TID 0000.0001) SEAICEuseEVP      = /* use EVP solver rather than LSR */
(PID.TID 0000.0001)                   F
(PID.TID 0000.0001)     ;
(PID.TID 0000.0001) SEAICEuseJFNK     = /* use JFNK solver */
(PID.TID 0000.0001)                   F
(PID.TID 0000.0001)     ;
(PID.TID 0000.0001) SEAICEuseFREEDRIFT = /* use free drift solution */
(PID.TID 0000.0001)                   F
(PID.TID 0000.0001)     ;
(PID.TID 0000.0001) OCEAN_drag        = /* air-ocean drag coefficient */
(PID.TID 0000.0001)                 8.154100000000000E-04
(PID.TID 0000.0001)     ;
(PID.TID 0000.0001) SEAICE_drag       = /* air-ice drag coefficient */
(PID.TID 0000.0001)                 1.000000000000000E-03
(PID.TID 0000.0001)     ;
(PID.TID 0000.0001) SEAICE_drag_south      = /* Southern Ocean SEAICE_drag */
(PID.TID 0000.0001)                 1.000000000000000E-03
(PID.TID 0000.0001)     ;
(PID.TID 0000.0001) SEAICE_waterDrag  = /* water-ice drag (no units) */
(PID.TID 0000.0001)                 5.350800000000000E-03
(PID.TID 0000.0001)     ;
(PID.TID 0000.0001) SEAICE_waterDrag_south = /* Southern Ocean waterDrag (no units) */
(PID.TID 0000.0001)                 5.350800000000000E-03
(PID.TID 0000.0001)     ;
(PID.TID 0000.0001) SEAICEdWatMin = /* minimum linear water-ice drag (in m/s) */
(PID.TID 0000.0001)                 2.500000000000000E-01
(PID.TID 0000.0001)     ;
(PID.TID 0000.0001) SEAICEuseTilt     = /* include surface tilt in dyna. */
(PID.TID 0000.0001)                   T
(PID.TID 0000.0001)     ;
(PID.TID 0000.0001) SEAICEuseTEM      = /* use truncated ellipse rheology */
(PID.TID 0000.0001)                   F
(PID.TID 0000.0001)     ;
(PID.TID 0000.0001) SEAICE_strength   = /* sea-ice strength Pstar */
(PID.TID 0000.0001)                 2.678000000000000E+04
(PID.TID 0000.0001)     ;
(PID.TID 0000.0001) SEAICE_cStar      = /* sea-ice strength parameter cStar */
(PID.TID 0000.0001)                 2.000000000000000E+01
(PID.TID 0000.0001)     ;
(PID.TID 0000.0001) SEAICEpressReplFac= /* press. replacement method factor */
(PID.TID 0000.0001)                 1.000000000000000E+00
(PID.TID 0000.0001)     ;
(PID.TID 0000.0001) SEAICE_tensilFac  = /* sea-ice tensile strength factor */
(PID.TID 0000.0001)                 0.000000000000000E+00
(PID.TID 0000.0001)     ;
(PID.TID 0000.0001) SEAICE_tensilDepth= /* crit. depth for tensile strength */
(PID.TID 0000.0001)                 0.000000000000000E+00
(PID.TID 0000.0001)     ;
(PID.TID 0000.0001) SEAICEpresH0   = /* sea-ice strength Heff threshold */
(PID.TID 0000.0001)                 1.000000000000000E+00
(PID.TID 0000.0001)     ;
(PID.TID 0000.0001) SEAICEpresPow0 = /* exponent for Heff<SEAICEpresH0 */
(PID.TID 0000.0001)                       1
(PID.TID 0000.0001)     ;
(PID.TID 0000.0001) SEAICEpresPow1 = /* exponent for Heff>SEAICEpresH0 */
(PID.TID 0000.0001)                       1
(PID.TID 0000.0001)     ;
(PID.TID 0000.0001) SEAICEetaZmethod = /* method computing eta at Z-point */
(PID.TID 0000.0001)                       3
(PID.TID 0000.0001)     ;
(PID.TID 0000.0001) SEAICE_zetaMaxFac = /* factor for upper viscosity bound */
(PID.TID 0000.0001)                 2.500000000000000E+08
(PID.TID 0000.0001)     ;
(PID.TID 0000.0001) SEAICE_zetaMin    = /* lower bound for viscosity */
(PID.TID 0000.0001)                 0.000000000000000E+00
(PID.TID 0000.0001)     ;
(PID.TID 0000.0001) SEAICE_eccen    = /* elliptical yield curve eccent */
(PID.TID 0000.0001)                 2.000000000000000E+00
(PID.TID 0000.0001)     ;
(PID.TID 0000.0001) SEAICEstressFactor    = /* wind stress scaling factor */
(PID.TID 0000.0001)                 1.000000000000000E+00
(PID.TID 0000.0001)     ;
(PID.TID 0000.0001) SEAICE_airTurnAngle    = /* air-ice turning angle */
(PID.TID 0000.0001)                 0.000000000000000E+00
(PID.TID 0000.0001)     ;
(PID.TID 0000.0001) SEAICE_waterTurnAngle  = /* ice-water turning angle */
(PID.TID 0000.0001)                 0.000000000000000E+00
(PID.TID 0000.0001)     ;
(PID.TID 0000.0001) SEAICEuseMetricTerms = /* use metric terms */
(PID.TID 0000.0001)                   T
(PID.TID 0000.0001)     ;
(PID.TID 0000.0001) SEAICE_no_slip    = /* no slip boundary conditions */
(PID.TID 0000.0001)                   F
(PID.TID 0000.0001)     ;
(PID.TID 0000.0001) SEAICE_2ndOrderBC = /* 2nd order no slip boundary conditions */
(PID.TID 0000.0001)                   F
(PID.TID 0000.0001)     ;
(PID.TID 0000.0001) SEAICE_clipVeloctities = /* impose max. vels. */
(PID.TID 0000.0001)                   F
(PID.TID 0000.0001)     ;
(PID.TID 0000.0001) useHB87stressCoupling  = /* altern. ice-ocean stress */
(PID.TID 0000.0001)                   F
(PID.TID 0000.0001)     ;
(PID.TID 0000.0001) SEAICEscaleSurfStress  = /* scale atm. and ocean-surface stress with AREA */
(PID.TID 0000.0001)                   T
(PID.TID 0000.0001)     ;
(PID.TID 0000.0001) SEAICE_maskRHS    = /* mask RHS of solver */
(PID.TID 0000.0001)                   F
(PID.TID 0000.0001)     ;
(PID.TID 0000.0001) SEAICEaddSnowMass = /* add snow mass to seaiceMassC/U/V */
(PID.TID 0000.0001)                   T
(PID.TID 0000.0001)     ;
(PID.TID 0000.0001) LSR_mixIniGuess = /* mix free-drift sol. into LSR initial Guess */
(PID.TID 0000.0001)                       1
(PID.TID 0000.0001)     ;
(PID.TID 0000.0001) SEAICE_LSRrelaxU  = /* LSR solver: relaxation parameter */
(PID.TID 0000.0001)                 9.500000000000000E-01
(PID.TID 0000.0001)     ;
(PID.TID 0000.0001) SEAICE_LSRrelaxV  = /* LSR solver: relaxation parameter */
(PID.TID 0000.0001)                 9.500000000000000E-01
(PID.TID 0000.0001)     ;
(PID.TID 0000.0001) LSR_ERROR         = /* sets accuracy of LSR solver */
(PID.TID 0000.0001)                 1.000000000000000E-12
(PID.TID 0000.0001)     ;
(PID.TID 0000.0001) SOLV_NCHECK       = /* test interval for LSR solver */
(PID.TID 0000.0001)                       2
(PID.TID 0000.0001)     ;
(PID.TID 0000.0001) SEAICEuseMultiTileSolver = /* use full domain tri-diag solver */
(PID.TID 0000.0001)                   F
(PID.TID 0000.0001)     ;
(PID.TID 0000.0001) SEAICE_OLx = /* overlap for LSR/preconditioner */
(PID.TID 0000.0001)                       1
(PID.TID 0000.0001)     ;
(PID.TID 0000.0001) SEAICE_OLy = /* overlap for LSR/preconditioner */
(PID.TID 0000.0001)                       1
(PID.TID 0000.0001)     ;
(PID.TID 0000.0001) SEAICEnonLinIterMax = /* max. number of nonlinear solver steps */
(PID.TID 0000.0001)                       2
(PID.TID 0000.0001)     ;
(PID.TID 0000.0001) SEAICElinearIterMax = /* max. number of linear solver steps */
(PID.TID 0000.0001)                     500
(PID.TID 0000.0001)     ;
(PID.TID 0000.0001) SEAICEnonLinTol     = /* non-linear solver tolerance */
(PID.TID 0000.0001)                 0.000000000000000E+00
(PID.TID 0000.0001)     ;
(PID.TID 0000.0001) 
(PID.TID 0000.0001)    Seaice advection diffusion config,   > START <
(PID.TID 0000.0001)    -----------------------------------------------
(PID.TID 0000.0001) SEAICEmomAdvection = /* advect sea ice momentum */
(PID.TID 0000.0001)                   F
(PID.TID 0000.0001)     ;
(PID.TID 0000.0001) SEAICEadvHeff = /* advect effective ice thickness */
(PID.TID 0000.0001)                   T
(PID.TID 0000.0001)     ;
(PID.TID 0000.0001) SEAICEadvArea = /* advect fractional ice area */
(PID.TID 0000.0001)                   T
(PID.TID 0000.0001)     ;
(PID.TID 0000.0001) SEAICEadvSnow = /* advect snow layer together with ice */
(PID.TID 0000.0001)                   T
(PID.TID 0000.0001)     ;
(PID.TID 0000.0001) SEAICEmultiDimAdvection = /* multidimadvec */
(PID.TID 0000.0001)                   T
(PID.TID 0000.0001)     ;
(PID.TID 0000.0001) SEAICEadvScheme   = /* advection scheme for ice */
(PID.TID 0000.0001)                      77
(PID.TID 0000.0001)     ;
(PID.TID 0000.0001) SEAICEadvSchArea  = /* advection scheme for area */
(PID.TID 0000.0001)                      77
(PID.TID 0000.0001)     ;
(PID.TID 0000.0001) SEAICEadvSchHeff  = /* advection scheme for thickness */
(PID.TID 0000.0001)                      77
(PID.TID 0000.0001)     ;
(PID.TID 0000.0001) SEAICEadvSchSnow  = /* advection scheme for snow */
(PID.TID 0000.0001)                      77
(PID.TID 0000.0001)     ;
(PID.TID 0000.0001) SEAICEdiffKhArea  = /* diffusivity (m^2/s) for area */
(PID.TID 0000.0001)                 0.000000000000000E+00
(PID.TID 0000.0001)     ;
(PID.TID 0000.0001) SEAICEdiffKhHeff  = /* diffusivity (m^2/s) for heff */
(PID.TID 0000.0001)                 0.000000000000000E+00
(PID.TID 0000.0001)     ;
(PID.TID 0000.0001) SEAICEdiffKhSnow  = /* diffusivity (m^2/s) for snow */
(PID.TID 0000.0001)                 0.000000000000000E+00
(PID.TID 0000.0001)     ;
(PID.TID 0000.0001) DIFF1             = /* parameter used in advect.F [m/s] */
(PID.TID 0000.0001)                 0.000000000000000E+00
(PID.TID 0000.0001)     ;
(PID.TID 0000.0001) 
(PID.TID 0000.0001)    Seaice thermodynamics configuration   > START <
(PID.TID 0000.0001)    -----------------------------------------------
(PID.TID 0000.0001) SEAICE_rhoIce     = /* density of sea ice (kg/m3) */
(PID.TID 0000.0001)                 9.100000000000000E+02
(PID.TID 0000.0001)     ;
(PID.TID 0000.0001) SEAICE_rhoSnow    = /* density of snow (kg/m3) */
(PID.TID 0000.0001)                 3.300000000000000E+02
(PID.TID 0000.0001)     ;
(PID.TID 0000.0001) SEAICE_rhoAir     = /* density of air (kg/m3) */
(PID.TID 0000.0001)                 1.200000000000000E+00
(PID.TID 0000.0001)     ;
(PID.TID 0000.0001) usePW79thermodynamics  = /* default 0-layer TD */
(PID.TID 0000.0001)                   T
(PID.TID 0000.0001)     ;
(PID.TID 0000.0001) SEAICE_USE_GROWTH_ADX defined, using seaice_growth_adx code
(PID.TID 0000.0001)  SINegFac  =  1.00000000000000000E+00
(PID.TID 0000.0001) 
(PID.TID 0000.0001) SEAICE_lhEvap     = /* latent heat of evaporation */
(PID.TID 0000.0001)                 2.500000000000000E+06
(PID.TID 0000.0001)     ;
(PID.TID 0000.0001) SEAICE_lhFusion   = /* latent heat of fusion */
(PID.TID 0000.0001)                 3.340000000000000E+05
(PID.TID 0000.0001)     ;
(PID.TID 0000.0001) SEAICE_mcPheePiston = /* turbulent flux "piston velocity" a la McPhee (m/s) */
(PID.TID 0000.0001)                 8.749999999999999E-04
(PID.TID 0000.0001)     ;
(PID.TID 0000.0001) SEAICE_mcPheeTaper = /* tapering of turbulent flux (0.< <1.) for AREA=1. */
(PID.TID 0000.0001)                 0.000000000000000E+00
(PID.TID 0000.0001)     ;
(PID.TID 0000.0001) SEAICE_mcPheeStepFunc = /* replace linear tapering with step funct. */
(PID.TID 0000.0001)                   F
(PID.TID 0000.0001)     ;
(PID.TID 0000.0001) SEAICE_frazilFrac = /* frazil (T<tempFrz) to seaice conversion rate (0.< <1.) */
(PID.TID 0000.0001)                 1.000000000000000E+00
(PID.TID 0000.0001)     ;
(PID.TID 0000.0001) SEAICE_tempFrz0   = /* freezing temp. of sea water (intercept) */
(PID.TID 0000.0001)                 0.000000000000000E+00
(PID.TID 0000.0001)     ;
(PID.TID 0000.0001) SEAICE_dTempFrz_dS= /* freezing temp. of sea water (slope) */
(PID.TID 0000.0001)                -5.400000000000000E-02
(PID.TID 0000.0001)     ;
(PID.TID 0000.0001) SEAICE_growMeltByConv  = /* grow,melt by vert. conv. */
(PID.TID 0000.0001)                   F
(PID.TID 0000.0001)     ;
(PID.TID 0000.0001) SEAICE_doOpenWaterGrowth = /* grow by open water */
(PID.TID 0000.0001)                   T
(PID.TID 0000.0001)     ;
(PID.TID 0000.0001) SEAICE_doOpenWaterMelt = /* melt by open water */
(PID.TID 0000.0001)                   F
(PID.TID 0000.0001)     ;
(PID.TID 0000.0001) SEAICE_areaGainFormula = /* ice cover gain formula (1,2)*/
(PID.TID 0000.0001)                       1
(PID.TID 0000.0001)     1=from growth by ATM
(PID.TID 0000.0001)     2=from predicted growth by ATM
(PID.TID 0000.0001)     ;
(PID.TID 0000.0001) SEAICE_areaLossFormula = /* ice cover loss formula (1,2)*/
(PID.TID 0000.0001)                       1
(PID.TID 0000.0001)     1=from all but only melt conributions by ATM and OCN
(PID.TID 0000.0001)     2=from net melt-grow>0 by ATM and OCN
[...]
 ph-ice C           11   2820798842.1087852     
(PID.TID 0000.0001) Did not write pickup because writePickupAtEnd = FALSE
 --> f_ice     = 0.140421825917096D+11
(PID.TID 0000.0001)   early fc =  0.000000000000000D+00
(PID.TID 0000.0001)   local fc =  0.140421825917096D-04
(PID.TID 0000.0001)  global fc =  0.140421825917096D-04
(PID.TID 0000.0001) grdchk perturb(+)fc: fcpertplus  =  1.40421825917096E-05
(PID.TID 0000.0001) Start initial hydrostatic pressure computation
(PID.TID 0000.0001) Pressure is predetermined for buoyancyRelation OCEANIC
(PID.TID 0000.0001) 
(PID.TID 0000.0001) // =======================================================
(PID.TID 0000.0001) // Model current state
(PID.TID 0000.0001) // =======================================================
(PID.TID 0000.0001) 
 ph-ice B            0  -1.6200000000000001       0.99978593417448558       0.19992567554234297     
 ph-ice C            0   236110655.29849190     
 ph-ice B            1  -1.6185255786089063       0.99769411079004766       0.19947340963366034     
 ph-ice C            1   471900684.40526867     
 ph-ice B            2  -1.6170754952480875       0.98323098088311334       0.19654792717453209     
 ph-ice C            2   707884387.57510781     
 ph-ice B            3  -1.6155608229616054       0.96278304127818437       0.19243192574477216     
 ph-ice C            3   943911526.53908348     
 ph-ice B            4  -1.6139405974019596       0.93230621372996747       0.18631642829287573     
 ph-ice C            4   1179849415.4745064     
 ph-ice B            5  -1.6121461208950445       0.87574216163559560       0.17498854426282953     
 ph-ice C            5   1415549207.2187529     
 ph-ice B            6  -1.6099961756254833       0.80025878582044641       0.15987578282586198     
 ph-ice C            6   1650905643.8550553     
 ph-ice B            7  -1.6073669153766277       0.73734360115165498       0.14722570176364819     
 ph-ice C            7   1885851570.7579176     
 ph-ice B            8  -1.6043660835768301       0.63753222230449580       0.12707463645708769     
 ph-ice C            8   2120336578.5504360     
 ph-ice B            9  -1.6007937179888789       0.53003001779259196       0.10520267035837781     
 ph-ice C            9   2354328976.5695043     
 ph-ice B           10  -1.5970070373109198       0.43177781524428321        8.5004214271370879E-002
 ph-ice C           10   2587818340.4386868     
 ph-ice B           11  -1.5945483489203729       0.33245913812966355        6.4330497742409537E-002
 ph-ice C           11   2820798841.2904711     
(PID.TID 0000.0001) Did not write pickup because writePickupAtEnd = FALSE
 --> f_ice     = 0.140421825422942D+11
(PID.TID 0000.0001)   early fc =  0.000000000000000D+00
(PID.TID 0000.0001)   local fc =  0.140421825422942D-04
(PID.TID 0000.0001)  global fc =  0.140421825422942D-04
(PID.TID 0000.0001) grdchk perturb(-)fc: fcpertminus =  1.40421825422942E-05
grad-res -------------------------------
 grad-res     0    4    4    1    1    2    2    1   1.40421825670E-05  1.40421825917E-05  1.40421825423E-05
 grad-res     0    4    4    4    0    2    2    1   2.48895570820E-08  2.47077037378E-08  7.30641142520E-03
(PID.TID 0000.0001)  ADM  ref_cost_function      =  1.40421825670019E-05
(PID.TID 0000.0001)  ADM  adjoint_gradient       =  2.48895570820196E-08
(PID.TID 0000.0001)  ADM  finite-diff_grad       =  2.47077037377873E-08
(PID.TID 0000.0001) ====== End of gradient-check number   4 (ierr=  0) =======
(PID.TID 0000.0001) 
(PID.TID 0000.0001) // =======================================================
(PID.TID 0000.0001) // Gradient check results  >>> START <<<
(PID.TID 0000.0001) // =======================================================
(PID.TID 0000.0001) 
(PID.TID 0000.0001)  EPS = 1.000000E-06 ; grdchk CTRL var/file name: "xx_siheff"
(PID.TID 0000.0001) 
(PID.TID 0000.0001) grdchk output h.p:  Id Itile Jtile LAYER   bi   bj   X(Id)           X(Id)+/-EPS
(PID.TID 0000.0001) grdchk output h.c:  Id  FC                   FC1                  FC2
(PID.TID 0000.0001) grdchk output h.g:  Id     FC1-FC2/(2*EPS)      ADJ GRAD(FC)         1-FDGRD/ADGRD
(PID.TID 0000.0001) 
(PID.TID 0000.0001) grdchk output (p):   1     0     0     0    0    0   0.000000000E+00 -1.000000000E-06
(PID.TID 0000.0001) grdchk output (c):   1  1.4042182567002E-05  1.4042182591956E-05  1.4042182542048E-05
(PID.TID 0000.0001) grdchk output (g):   1     2.4953933674455E-08  2.4937870435338E-08 -6.4413034623012E-04
(PID.TID 0000.0001) 
(PID.TID 0000.0001) grdchk output (p):   2     0     0     0    0    0   0.000000000E+00 -1.000000000E-06
(PID.TID 0000.0001) grdchk output (c):   2  1.4042182567002E-05  1.4042182592006E-05  1.4042182541996E-05
(PID.TID 0000.0001) grdchk output (g):   2     2.5005203731720E-08  2.4919339480789E-08 -3.4456872742124E-03
(PID.TID 0000.0001) 
(PID.TID 0000.0001) grdchk output (p):   3     0     0     0    0    0   0.000000000E+00 -1.000000000E-06
(PID.TID 0000.0001) grdchk output (c):   3  1.4042182567002E-05  1.4042182592008E-05  1.4042182541996E-05
(PID.TID 0000.0001) grdchk output (g):   3     2.5006111751039E-08  2.4897952144443E-08 -4.3441165750939E-03
(PID.TID 0000.0001) 
(PID.TID 0000.0001) grdchk output (p):   4     0     0     0    0    0   0.000000000E+00 -1.000000000E-06
(PID.TID 0000.0001) grdchk output (c):   4  1.4042182567002E-05  1.4042182591710E-05  1.4042182542294E-05
(PID.TID 0000.0001) grdchk output (g):   4     2.4707703737787E-08  2.4889557082020E-08  7.3064114251995E-03
(PID.TID 0000.0001) 
(PID.TID 0000.0001) grdchk  summary  :  RMS of    4 ratios =  4.5973541691634E-03
(PID.TID 0000.0001) 
(PID.TID 0000.0001) // =======================================================
(PID.TID 0000.0001) // Gradient check results  >>> END <<<
(PID.TID 0000.0001) // =======================================================
(PID.TID 0000.0001) 
(PID.TID 0000.0001)   Seconds in section "ALL                    [THE_MODEL_MAIN]":
(PID.TID 0000.0001)           User time:   96.447708204388618
(PID.TID 0000.0001)         System time:  0.21031199721619487
(PID.TID 0000.0001)     Wall clock time:   96.733148813247681
(PID.TID 0000.0001)          No. starts:           1
(PID.TID 0000.0001)           No. stops:           1
(PID.TID 0000.0001)   Seconds in section "INITIALISE_FIXED       [THE_MODEL_MAIN]":
(PID.TID 0000.0001)           User time:   2.3193999659270048E-002
(PID.TID 0000.0001)         System time:   3.3413000404834747E-002
(PID.TID 0000.0001)     Wall clock time:   5.7389020919799805E-002
(PID.TID 0000.0001)          No. starts:           1
(PID.TID 0000.0001)           No. stops:           1
(PID.TID 0000.0001)   Seconds in section "ADTHE_MAIN_LOOP          [ADJOINT RUN]":
(PID.TID 0000.0001)           User time:   28.152542900294065
(PID.TID 0000.0001)         System time:  0.12240299582481384
(PID.TID 0000.0001)     Wall clock time:   28.294584989547729
(PID.TID 0000.0001)          No. starts:           1
(PID.TID 0000.0001)           No. stops:           1
(PID.TID 0000.0001)   Seconds in section "FORWARD_STEP        [MAIN_DO_LOOP]":
(PID.TID 0000.0001)           User time:   85.548874463886023
(PID.TID 0000.0001)         System time:   2.8483025729656219E-002
(PID.TID 0000.0001)     Wall clock time:   85.644518852233887
(PID.TID 0000.0001)          No. starts:         120
(PID.TID 0000.0001)           No. stops:         120
(PID.TID 0000.0001)   Seconds in section "DO_STATEVARS_DIAGS  [FORWARD_STEP]":
(PID.TID 0000.0001)           User time:   7.9188756644725800E-003
(PID.TID 0000.0001)         System time:   1.7002224922180176E-005
(PID.TID 0000.0001)     Wall clock time:   7.9412460327148438E-003
(PID.TID 0000.0001)          No. starts:          36
(PID.TID 0000.0001)           No. stops:          36
(PID.TID 0000.0001)   Seconds in section "LOAD_FIELDS_DRIVER  [FORWARD_STEP]":
(PID.TID 0000.0001)           User time:  0.42249620333313942
(PID.TID 0000.0001)         System time:   6.1359032988548279E-003
(PID.TID 0000.0001)     Wall clock time:  0.42898702621459961
(PID.TID 0000.0001)          No. starts:         120
(PID.TID 0000.0001)           No. stops:         120
(PID.TID 0000.0001)   Seconds in section "EXF_GETFORCING     [LOAD_FLDS_DRIVER]":
(PID.TID 0000.0001)           User time:  0.37740840017795563
(PID.TID 0000.0001)         System time:   3.7959665060043335E-003
(PID.TID 0000.0001)     Wall clock time:  0.38154554367065430
(PID.TID 0000.0001)          No. starts:         120
(PID.TID 0000.0001)           No. stops:         120
(PID.TID 0000.0001)   Seconds in section "EXTERNAL_FLDS_LOAD [LOAD_FLDS_DRIVER]":
(PID.TID 0000.0001)           User time:   6.1974674463272095E-004
(PID.TID 0000.0001)         System time:   2.3990869522094727E-005
(PID.TID 0000.0001)     Wall clock time:   6.6971778869628906E-004
(PID.TID 0000.0001)          No. starts:         120
(PID.TID 0000.0001)           No. stops:         120
(PID.TID 0000.0001)   Seconds in section "CTRL_MAP_FORCING  [FORWARD_STEP]":
(PID.TID 0000.0001)           User time:  0.14823924005031586
(PID.TID 0000.0001)         System time:   3.4011900424957275E-005
(PID.TID 0000.0001)     Wall clock time:  0.14841032028198242
(PID.TID 0000.0001)          No. starts:         120
(PID.TID 0000.0001)           No. stops:         120
(PID.TID 0000.0001)   Seconds in section "DO_ATMOSPHERIC_PHYS [FORWARD_STEP]":
(PID.TID 0000.0001)           User time:   2.9714703559875488E-003
(PID.TID 0000.0001)         System time:   2.5987625122070312E-005
(PID.TID 0000.0001)     Wall clock time:   3.0140876770019531E-003
(PID.TID 0000.0001)          No. starts:         120
(PID.TID 0000.0001)           No. stops:         120
(PID.TID 0000.0001)   Seconds in section "DO_OCEANIC_PHYS     [FORWARD_STEP]":
(PID.TID 0000.0001)           User time:   84.718806169927120
(PID.TID 0000.0001)         System time:   6.8201199173927307E-003
(PID.TID 0000.0001)     Wall clock time:   84.792117118835449
(PID.TID 0000.0001)          No. starts:         120
(PID.TID 0000.0001)           No. stops:         120
(PID.TID 0000.0001)   Seconds in section "SEAICE_MODEL    [DO_OCEANIC_PHYS]":
(PID.TID 0000.0001)           User time:   84.613533504307270
(PID.TID 0000.0001)         System time:   6.3191428780555725E-003
(PID.TID 0000.0001)     Wall clock time:   84.686281204223633
(PID.TID 0000.0001)          No. starts:         120
(PID.TID 0000.0001)           No. stops:         120
(PID.TID 0000.0001)   Seconds in section "SEAICE_DYNSOLVER   [SEAICE_MODEL]":
(PID.TID 0000.0001)           User time:   83.743087112903595
(PID.TID 0000.0001)         System time:   5.8020129799842834E-003
(PID.TID 0000.0001)     Wall clock time:   83.814988374710083
(PID.TID 0000.0001)          No. starts:         120
(PID.TID 0000.0001)           No. stops:         120
(PID.TID 0000.0001)   Seconds in section "DYNAMICS            [FORWARD_STEP]":
(PID.TID 0000.0001)           User time:   6.1432659626007080E-002
(PID.TID 0000.0001)         System time:   3.5017728805541992E-005
(PID.TID 0000.0001)     Wall clock time:   6.1513900756835938E-002
(PID.TID 0000.0001)          No. starts:         120
(PID.TID 0000.0001)           No. stops:         120
(PID.TID 0000.0001)   Seconds in section "MOM_CORRECTION_STEP [FORWARD_STEP]":
(PID.TID 0000.0001)           User time:   2.2564530372619629E-003
(PID.TID 0000.0001)         System time:   2.0973384380340576E-005
(PID.TID 0000.0001)     Wall clock time:   2.2923946380615234E-003
(PID.TID 0000.0001)          No. starts:         120
(PID.TID 0000.0001)           No. stops:         120
(PID.TID 0000.0001)   Seconds in section "BLOCKING_EXCHANGES  [FORWARD_STEP]":
(PID.TID 0000.0001)           User time:   1.6447424888610840E-002
(PID.TID 0000.0001)         System time:   4.5008957386016846E-005
(PID.TID 0000.0001)     Wall clock time:   1.6546964645385742E-002
(PID.TID 0000.0001)          No. starts:         240
(PID.TID 0000.0001)           No. stops:         240
(PID.TID 0000.0001)   Seconds in section "THERMODYNAMICS      [FORWARD_STEP]":
(PID.TID 0000.0001)           User time:  0.14922553300857544
(PID.TID 0000.0001)         System time:   4.7981739044189453E-005
(PID.TID 0000.0001)     Wall clock time:  0.14942789077758789
(PID.TID 0000.0001)          No. starts:         120
(PID.TID 0000.0001)           No. stops:         120
(PID.TID 0000.0001)   Seconds in section "TRC_CORRECTION_STEP [FORWARD_STEP]":
(PID.TID 0000.0001)           User time:   6.1726570129394531E-004
(PID.TID 0000.0001)         System time:   2.3037195205688477E-005
(PID.TID 0000.0001)     Wall clock time:   6.6351890563964844E-004
(PID.TID 0000.0001)          No. starts:         120
(PID.TID 0000.0001)           No. stops:         120
(PID.TID 0000.0001)   Seconds in section "MONITOR             [FORWARD_STEP]":
(PID.TID 0000.0001)           User time:   7.1263313293457031E-004
(PID.TID 0000.0001)         System time:   2.2001564502716064E-005
(PID.TID 0000.0001)     Wall clock time:   7.0166587829589844E-004
(PID.TID 0000.0001)          No. starts:         120
(PID.TID 0000.0001)           No. stops:         120
(PID.TID 0000.0001)   Seconds in section "COST_TILE           [FORWARD_STEP]":
(PID.TID 0000.0001)           User time:   6.4688920974731445E-004
(PID.TID 0000.0001)         System time:   1.9967555999755859E-005
(PID.TID 0000.0001)     Wall clock time:   6.6709518432617188E-004
(PID.TID 0000.0001)          No. starts:         120
(PID.TID 0000.0001)           No. stops:         120
(PID.TID 0000.0001)   Seconds in section "DO_THE_MODEL_IO     [FORWARD_STEP]":
(PID.TID 0000.0001)           User time:   5.7272911071777344E-003
(PID.TID 0000.0001)         System time:   1.1955022811889648E-002
(PID.TID 0000.0001)     Wall clock time:   1.7753601074218750E-002
(PID.TID 0000.0001)          No. starts:         120
(PID.TID 0000.0001)           No. stops:         120
(PID.TID 0000.0001)   Seconds in section "DO_WRITE_PICKUP     [FORWARD_STEP]":
(PID.TID 0000.0001)           User time:   2.0750761032104492E-003
(PID.TID 0000.0001)         System time:   2.8740018606185913E-003
(PID.TID 0000.0001)     Wall clock time:   4.9588680267333984E-003
(PID.TID 0000.0001)          No. starts:         120
(PID.TID 0000.0001)           No. stops:         120
(PID.TID 0000.0001)   Seconds in section "I/O (WRITE)        [ADJOINT LOOP]":
(PID.TID 0000.0001)           User time:   1.5296936035156250E-003
(PID.TID 0000.0001)         System time:   3.0910223722457886E-003
(PID.TID 0000.0001)     Wall clock time:   4.5938491821289062E-003
(PID.TID 0000.0001)          No. starts:          12
(PID.TID 0000.0001)           No. stops:          12
(PID.TID 0000.0001)   Seconds in section "GRDCHK_MAIN         [THE_MODEL_MAIN]":
(PID.TID 0000.0001)           User time:   68.271953582763672
(PID.TID 0000.0001)         System time:   5.4485991597175598E-002
(PID.TID 0000.0001)     Wall clock time:   68.381145954132080
(PID.TID 0000.0001)          No. starts:           1
(PID.TID 0000.0001)           No. stops:           1
(PID.TID 0000.0001)   Seconds in section "INITIALISE_VARIA    [THE_MAIN_LOOP]":
(PID.TID 0000.0001)           User time:   6.2208175659179688E-002
(PID.TID 0000.0001)         System time:   3.2598972320556641E-002
(PID.TID 0000.0001)     Wall clock time:   9.5039129257202148E-002
(PID.TID 0000.0001)          No. starts:           8
(PID.TID 0000.0001)           No. stops:           8
(PID.TID 0000.0001)   Seconds in section "MAIN LOOP           [THE_MAIN_LOOP]":
(PID.TID 0000.0001)           User time:   68.204679489135742
(PID.TID 0000.0001)         System time:   1.2650042772293091E-002
(PID.TID 0000.0001)     Wall clock time:   68.271683692932129
(PID.TID 0000.0001)          No. starts:           8
(PID.TID 0000.0001)           No. stops:           8
(PID.TID 0000.0001)   Seconds in section "MAIN_DO_LOOP        [THE_MAIN_LOOP]":
(PID.TID 0000.0001)           User time:   68.203464508056641
(PID.TID 0000.0001)         System time:   1.0577008128166199E-002
(PID.TID 0000.0001)     Wall clock time:   68.268427371978760
(PID.TID 0000.0001)          No. starts:          96
(PID.TID 0000.0001)           No. stops:          96
(PID.TID 0000.0001)   Seconds in section "COST_FINAL         [ADJOINT SPIN-DOWN]":
(PID.TID 0000.0001)           User time:   2.8228759765625000E-004
(PID.TID 0000.0001)         System time:   2.0500123500823975E-003
(PID.TID 0000.0001)     Wall clock time:   2.3407936096191406E-003
(PID.TID 0000.0001)          No. starts:           8
(PID.TID 0000.0001)           No. stops:           8
(PID.TID 0000.0001) // ======================================================
(PID.TID 0000.0001) // Tile <-> Tile communication statistics
(PID.TID 0000.0001) // ======================================================
(PID.TID 0000.0001) // o Tile number: 000001
(PID.TID 0000.0001) //         No. X exchanges =              0
(PID.TID 0000.0001) //            Max. X spins =              0
(PID.TID 0000.0001) //            Min. X spins =     1000000000
(PID.TID 0000.0001) //          Total. X spins =              0
(PID.TID 0000.0001) //            Avg. X spins =       0.00E+00
(PID.TID 0000.0001) //         No. Y exchanges =              0
(PID.TID 0000.0001) //            Max. Y spins =              0
(PID.TID 0000.0001) //            Min. Y spins =     1000000000
(PID.TID 0000.0001) //          Total. Y spins =              0
(PID.TID 0000.0001) //            Avg. Y spins =       0.00E+00
(PID.TID 0000.0001) // o Tile number: 000002
(PID.TID 0000.0001) //         No. X exchanges =              0
(PID.TID 0000.0001) //            Max. X spins =              0
(PID.TID 0000.0001) //            Min. X spins =     1000000000
(PID.TID 0000.0001) //          Total. X spins =              0
(PID.TID 0000.0001) //            Avg. X spins =       0.00E+00
(PID.TID 0000.0001) //         No. Y exchanges =              0
(PID.TID 0000.0001) //            Max. Y spins =              0
(PID.TID 0000.0001) //            Min. Y spins =     1000000000
(PID.TID 0000.0001) //          Total. Y spins =              0
(PID.TID 0000.0001) //            Avg. Y spins =       0.00E+00
(PID.TID 0000.0001) // o Tile number: 000003
(PID.TID 0000.0001) //         No. X exchanges =              0
(PID.TID 0000.0001) //            Max. X spins =              0
(PID.TID 0000.0001) //            Min. X spins =     1000000000
(PID.TID 0000.0001) //          Total. X spins =              0
(PID.TID 0000.0001) //            Avg. X spins =       0.00E+00
(PID.TID 0000.0001) //         No. Y exchanges =              0
(PID.TID 0000.0001) //            Max. Y spins =              0
(PID.TID 0000.0001) //            Min. Y spins =     1000000000
(PID.TID 0000.0001) //          Total. Y spins =              0
(PID.TID 0000.0001) //            Avg. Y spins =       0.00E+00
(PID.TID 0000.0001) // o Tile number: 000004
(PID.TID 0000.0001) //         No. X exchanges =              0
(PID.TID 0000.0001) //            Max. X spins =              0
(PID.TID 0000.0001) //            Min. X spins =     1000000000
(PID.TID 0000.0001) //          Total. X spins =              0
(PID.TID 0000.0001) //            Avg. X spins =       0.00E+00
(PID.TID 0000.0001) //         No. Y exchanges =              0
(PID.TID 0000.0001) //            Max. Y spins =              0
(PID.TID 0000.0001) //            Min. Y spins =     1000000000
(PID.TID 0000.0001) //          Total. Y spins =              0
(PID.TID 0000.0001) //            Avg. Y spins =       0.00E+00
(PID.TID 0000.0001) // o Thread number: 000001
(PID.TID 0000.0001) //            No. barriers =         268958
(PID.TID 0000.0001) //      Max. barrier spins =              1
(PID.TID 0000.0001) //      Min. barrier spins =              1
(PID.TID 0000.0001) //     Total barrier spins =         268958
(PID.TID 0000.0001) //      Avg. barrier spins =       1.00E+00
PROGRAM MAIN: Execution ended Normally
