(PID.TID 0000.0001) 
(PID.TID 0000.0001) // ======================================================
(PID.TID 0000.0001) //                      MITgcm UV
(PID.TID 0000.0001) //                      =========
(PID.TID 0000.0001) // ======================================================
(PID.TID 0000.0001) // execution environment starting up...
(PID.TID 0000.0001) 
(PID.TID 0000.0001) // MITgcmUV version:  checkpoint68h
(PID.TID 0000.0001) // Build user:        jm_c
(PID.TID 0000.0001) // Build host:        villon
(PID.TID 0000.0001) // Build date:        Thu Mar 24 17:15:13 EDT 2022
(PID.TID 0000.0001) 
(PID.TID 0000.0001) // =======================================================
(PID.TID 0000.0001) // Execution Environment parameter file "eedata"
(PID.TID 0000.0001) // =======================================================
(PID.TID 0000.0001) ># Example "eedata" file
(PID.TID 0000.0001) ># Lines beginning "#" are comments
(PID.TID 0000.0001) ># nTx - No. threads per process in X
(PID.TID 0000.0001) ># nTy - No. threads per process in Y
(PID.TID 0000.0001) > &EEPARMS
(PID.TID 0000.0001) > nTx=1,
(PID.TID 0000.0001) > nTy=1,
(PID.TID 0000.0001) > /
(PID.TID 0000.0001) ># Note: Some systems use & as the namelist terminator (as shown here).
(PID.TID 0000.0001) >#       Other systems use a / character.
(PID.TID 0000.0001) 
(PID.TID 0000.0001) // =======================================================
(PID.TID 0000.0001) // Computational Grid Specification ( see files "SIZE.h" )
(PID.TID 0000.0001) //                                  ( and "eedata"       )
(PID.TID 0000.0001) // =======================================================
(PID.TID 0000.0001)      nPx =    1 ; /* No. processes in X */
(PID.TID 0000.0001)      nPy =    1 ; /* No. processes in Y */
(PID.TID 0000.0001)      nSx =    2 ; /* No. tiles in X per process */
(PID.TID 0000.0001)      nSy =    2 ; /* No. tiles in Y per process */
(PID.TID 0000.0001)      sNx =   40 ; /* Tile size in X */
(PID.TID 0000.0001)      sNy =   21 ; /* Tile size in Y */
(PID.TID 0000.0001)      OLx =    3 ; /* Tile overlap distance in X */
(PID.TID 0000.0001)      OLy =    3 ; /* Tile overlap distance in Y */
(PID.TID 0000.0001)      nTx =    1 ; /* No. threads in X per process */
(PID.TID 0000.0001)      nTy =    1 ; /* No. threads in Y per process */
(PID.TID 0000.0001)       Nr =    1 ; /* No. levels in the vertical   */
(PID.TID 0000.0001)       Nx =   80 ; /* Total domain size in X ( = nPx*nSx*sNx ) */
(PID.TID 0000.0001)       Ny =   42 ; /* Total domain size in Y ( = nPy*nSy*sNy ) */
(PID.TID 0000.0001)   nTiles =    4 ; /* Total no. tiles per process ( = nSx*nSy ) */
(PID.TID 0000.0001)   nProcs =    1 ; /* Total no. processes ( = nPx*nPy ) */
(PID.TID 0000.0001) nThreads =    1 ; /* Total no. threads per process ( = nTx*nTy ) */
(PID.TID 0000.0001) usingMPI =    F ; /* Flag used to control whether MPI is in use */
(PID.TID 0000.0001)                   /*  note: To execute a program with MPI calls */
(PID.TID 0000.0001)                   /*  it must be launched appropriately e.g     */
(PID.TID 0000.0001)                   /*  "mpirun -np 64 ......"                    */
(PID.TID 0000.0001) useCoupler=   F ; /* Flag used to control communications with   */
(PID.TID 0000.0001)                   /*  other model components, through a coupler */
(PID.TID 0000.0001) useNest2W_parent =    F ;/* Control 2-W Nesting comm */
(PID.TID 0000.0001) useNest2W_child  =    F ;/* Control 2-W Nesting comm */
(PID.TID 0000.0001) debugMode =    F ; /* print debug msg. (sequence of S/R calls)  */
(PID.TID 0000.0001) printMapIncludesZeros=    F ; /* print zeros in Std.Output maps */
(PID.TID 0000.0001) maxLengthPrt1D=   65 /* maxLength of 1D array printed to StdOut */
(PID.TID 0000.0001) 
(PID.TID 0000.0001) // ======================================================
(PID.TID 0000.0001) // Mapping of tiles to threads
(PID.TID 0000.0001) // ======================================================
(PID.TID 0000.0001) // -o- Thread   1, tiles (   1:   2,   1:   2)
(PID.TID 0000.0001) 
(PID.TID 0000.0001) // ======================================================
(PID.TID 0000.0001) // Tile <-> Tile connectvity table
(PID.TID 0000.0001) // ======================================================
(PID.TID 0000.0001) // Tile number: 000001 (process no. = 000000)
(PID.TID 0000.0001) //        WEST: Tile = 000002, Process = 000000, Comm = put
(PID.TID 0000.0001) //                bi = 000002, bj = 000001
(PID.TID 0000.0001) //        EAST: Tile = 000002, Process = 000000, Comm = put
(PID.TID 0000.0001) //                bi = 000002, bj = 000001
(PID.TID 0000.0001) //       SOUTH: Tile = 000003, Process = 000000, Comm = put
(PID.TID 0000.0001) //                bi = 000001, bj = 000002
(PID.TID 0000.0001) //       NORTH: Tile = 000003, Process = 000000, Comm = put
(PID.TID 0000.0001) //                bi = 000001, bj = 000002
(PID.TID 0000.0001) // Tile number: 000002 (process no. = 000000)
(PID.TID 0000.0001) //        WEST: Tile = 000001, Process = 000000, Comm = put
(PID.TID 0000.0001) //                bi = 000001, bj = 000001
(PID.TID 0000.0001) //        EAST: Tile = 000001, Process = 000000, Comm = put
(PID.TID 0000.0001) //                bi = 000001, bj = 000001
(PID.TID 0000.0001) //       SOUTH: Tile = 000004, Process = 000000, Comm = put
(PID.TID 0000.0001) //                bi = 000002, bj = 000002
(PID.TID 0000.0001) //       NORTH: Tile = 000004, Process = 000000, Comm = put
(PID.TID 0000.0001) //                bi = 000002, bj = 000002
(PID.TID 0000.0001) // Tile number: 000003 (process no. = 000000)
(PID.TID 0000.0001) //        WEST: Tile = 000004, Process = 000000, Comm = put
(PID.TID 0000.0001) //                bi = 000002, bj = 000002
(PID.TID 0000.0001) //        EAST: Tile = 000004, Process = 000000, Comm = put
(PID.TID 0000.0001) //                bi = 000002, bj = 000002
(PID.TID 0000.0001) //       SOUTH: Tile = 000001, Process = 000000, Comm = put
(PID.TID 0000.0001) //                bi = 000001, bj = 000001
(PID.TID 0000.0001) //       NORTH: Tile = 000001, Process = 000000, Comm = put
(PID.TID 0000.0001) //                bi = 000001, bj = 000001
(PID.TID 0000.0001) // Tile number: 000004 (process no. = 000000)
(PID.TID 0000.0001) //        WEST: Tile = 000003, Process = 000000, Comm = put
(PID.TID 0000.0001) //                bi = 000001, bj = 000002
(PID.TID 0000.0001) //        EAST: Tile = 000003, Process = 000000, Comm = put
(PID.TID 0000.0001) //                bi = 000001, bj = 000002
(PID.TID 0000.0001) //       SOUTH: Tile = 000002, Process = 000000, Comm = put
(PID.TID 0000.0001) //                bi = 000002, bj = 000001
(PID.TID 0000.0001) //       NORTH: Tile = 000002, Process = 000000, Comm = put
(PID.TID 0000.0001) //                bi = 000002, bj = 000001
(PID.TID 0000.0001) 
(PID.TID 0000.0001)  INI_PARMS: opening model parameter file "data"
(PID.TID 0000.0001)  OPEN_COPY_DATA_FILE: opening file data
(PID.TID 0000.0001) // =======================================================
(PID.TID 0000.0001) // Parameter file "data"
(PID.TID 0000.0001) // =======================================================
(PID.TID 0000.0001) ># ====================
(PID.TID 0000.0001) ># | Model parameters |
(PID.TID 0000.0001) ># ====================
(PID.TID 0000.0001) >#
(PID.TID 0000.0001) > &PARM01
(PID.TID 0000.0001) > tRef= -1.62,
(PID.TID 0000.0001) > sRef= 30.,
(PID.TID 0000.0001) > no_slip_sides=.FALSE.,
(PID.TID 0000.0001) > no_slip_bottom=.TRUE.,
(PID.TID 0000.0001) >#bottomDragLinear=1.E-3,
(PID.TID 0000.0001) > bottomDragQuadratic=5.E-3,
(PID.TID 0000.0001) > viscAr=3.E-2,
(PID.TID 0000.0001) > viscAh=3.E+2,
(PID.TID 0000.0001) > HeatCapacity_Cp = 3986.,
(PID.TID 0000.0001) > rhoNil          = 1030.,
(PID.TID 0000.0001) > rhoConstFresh   = 1000.,
(PID.TID 0000.0001) > eosType='LINEAR',
(PID.TID 0000.0001) > tAlpha=2.E-4,
(PID.TID 0000.0001) > sBeta= 0.,
(PID.TID 0000.0001) > staggerTimeStep=.TRUE.,
(PID.TID 0000.0001) > saltStepping=.FALSE.,
(PID.TID 0000.0001) >#tempStepping=.FALSE.,
(PID.TID 0000.0001) > tempAdvection=.FALSE.,
(PID.TID 0000.0001) > momStepping=.FALSE.,
(PID.TID 0000.0001) > f0=0.e-4,
(PID.TID 0000.0001) > beta=0.,
(PID.TID 0000.0001) > useJamartWetPoints=.TRUE.,
(PID.TID 0000.0001) > rigidLid=.FALSE.,
(PID.TID 0000.0001) > implicitFreeSurface=.TRUE.,
(PID.TID 0000.0001) >#exactConserv=.TRUE.,
(PID.TID 0000.0001) > convertFW2Salt=-1,
(PID.TID 0000.0001) > readBinaryPrec=64,
(PID.TID 0000.0001) > writeBinaryPrec=64,
(PID.TID 0000.0001) >#globalFiles=.TRUE.,
(PID.TID 0000.0001) >#useSingleCpuIO=.TRUE.,
(PID.TID 0000.0001) >#debugLevel=4,
(PID.TID 0000.0001) > /
(PID.TID 0000.0001) >
(PID.TID 0000.0001) ># Elliptic solver parameters
(PID.TID 0000.0001) > &PARM02
(PID.TID 0000.0001) > cg2dMaxIters=500,
(PID.TID 0000.0001) > cg2dTargetResidual=1.E-12,
(PID.TID 0000.0001) > /
(PID.TID 0000.0001) >
(PID.TID 0000.0001) ># Time stepping parameters
(PID.TID 0000.0001) > &PARM03
(PID.TID 0000.0001) > startTime=0.0,
(PID.TID 0000.0001) >#endTime=864000.,
(PID.TID 0000.0001) > nTimeSteps=120,
(PID.TID 0000.0001) > deltaT=3600.0,
(PID.TID 0000.0001) > abEps=0.1,
(PID.TID 0000.0001) > forcing_In_AB = .FALSE.,
(PID.TID 0000.0001) > pChkptFreq=5184000.,
(PID.TID 0000.0001) >#dumpFreq = 864000.,
(PID.TID 0000.0001) > monitorSelect = 2,
(PID.TID 0000.0001) > monitorFreq =  216000.,
(PID.TID 0000.0001) > adjMonitorFreq= 86400.,
(PID.TID 0000.0001) > /
(PID.TID 0000.0001) >
(PID.TID 0000.0001) ># Gridding parameters
(PID.TID 0000.0001) > &PARM04
(PID.TID 0000.0001) > usingCartesianGrid=.TRUE.,
(PID.TID 0000.0001) > delX=80*5.E3,
(PID.TID 0000.0001) > delY=42*5.E3,
(PID.TID 0000.0001) > ygOrigin=-110.E3,
(PID.TID 0000.0001) >#delR= 20., 30., 50.,
(PID.TID 0000.0001) > delR= 10.,
(PID.TID 0000.0001) > /
(PID.TID 0000.0001) >
(PID.TID 0000.0001) ># Input datasets
(PID.TID 0000.0001) > &PARM05
(PID.TID 0000.0001) >#bathyFile       = 'bathy_3c.bin',
(PID.TID 0000.0001) >#uVelInitFile    = 'uVel_3c0.bin',
(PID.TID 0000.0001) >#vVelInitFile    = 'vVel_3c0.bin',
(PID.TID 0000.0001) >#pSurfInitFile   = 'eta_3c0.bin',
(PID.TID 0000.0001) >#uVelInitFile    = 'uVel_3c1.bin',
(PID.TID 0000.0001) >#vVelInitFile    = 'vVel_3c1.bin',
(PID.TID 0000.0001) >#pSurfInitFile   = 'eta_3c1.bin',
(PID.TID 0000.0001) > bathyFile       = 'channel.bin',
(PID.TID 0000.0001) > uVelInitFile    = 'const+20.bin',
(PID.TID 0000.0001) > vVelInitFile    = 'const_00.bin',
(PID.TID 0000.0001) > /
(PID.TID 0000.0001) 
(PID.TID 0000.0001)  INI_PARMS ; starts to read PARM01
(PID.TID 0000.0001)  INI_PARMS ; read PARM01 : OK
(PID.TID 0000.0001)  INI_PARMS ; starts to read PARM02
(PID.TID 0000.0001)  INI_PARMS ; read PARM02 : OK
(PID.TID 0000.0001)  INI_PARMS ; starts to read PARM03
(PID.TID 0000.0001)  INI_PARMS ; read PARM03 : OK
(PID.TID 0000.0001)  INI_PARMS ; starts to read PARM04
(PID.TID 0000.0001)  INI_PARMS ; read PARM04 : OK
(PID.TID 0000.0001)  INI_PARMS ; starts to read PARM05
(PID.TID 0000.0001)  INI_PARMS ; read PARM05 : OK
(PID.TID 0000.0001)  INI_PARMS: finished reading file "data"
(PID.TID 0000.0001)  PACKAGES_BOOT: opening data.pkg
(PID.TID 0000.0001)  OPEN_COPY_DATA_FILE: opening file data.pkg
(PID.TID 0000.0001) // =======================================================
(PID.TID 0000.0001) // Parameter file "data.pkg"
(PID.TID 0000.0001) // =======================================================
(PID.TID 0000.0001) ># Packages
(PID.TID 0000.0001) > &PACKAGES
(PID.TID 0000.0001) >  useEXF    = .TRUE.,
(PID.TID 0000.0001) >  useCAL    = .TRUE.,
(PID.TID 0000.0001) >  useSEAICE = .TRUE.,
(PID.TID 0000.0001) ># useThSIce = .TRUE.,
(PID.TID 0000.0001) >  useDiagnostics=.TRUE.,
(PID.TID 0000.0001) >  useGrdchk = .TRUE.,
(PID.TID 0000.0001) > /
(PID.TID 0000.0001) 
(PID.TID 0000.0001)  PACKAGES_BOOT: finished reading data.pkg
(PID.TID 0000.0001)  PACKAGES_BOOT: On/Off package Summary
 --------  pkgs with a standard "usePKG" On/Off switch in "data.pkg":  --------
 pkg/cal                  compiled   and   used ( useCAL                   = T )
 pkg/exf                  compiled   and   used ( useEXF                   = T )
 pkg/autodiff             compiled   and   used ( useAUTODIFF              = T )
 pkg/grdchk               compiled   and   used ( useGrdchk                = T )
 pkg/ctrl                 compiled   and   used ( useCTRL                  = T )
 pkg/seaice               compiled   and   used ( useSEAICE                = T )
 pkg/thsice               compiled but not used ( useThSIce                = F )
 pkg/diagnostics          compiled   and   used ( useDiagnostics           = T )
 -------- pkgs without standard "usePKG" On/Off switch in "data.pkg":  --------
 pkg/generic_advdiff      compiled   and   used ( useGAD                   = T )
 pkg/mom_common           compiled but not used ( momStepping              = F )
 pkg/mom_vecinv           compiled but not used ( +vectorInvariantMomentum = F )
 pkg/mom_fluxform         compiled but not used ( & not vectorInvariantMom = F )
 pkg/monitor              compiled   and   used ( monitorFreq > 0.         = T )
 pkg/debug                compiled but not used ( debugMode                = F )
 pkg/rw                   compiled   and   used
 pkg/mdsio                compiled   and   used
 pkg/autodiff             compiled   and   used
 pkg/cost                 compiled   and   used
(PID.TID 0000.0001)  PACKAGES_BOOT: End of package Summary
(PID.TID 0000.0001) 
(PID.TID 0000.0001) CAL_READPARMS: opening data.cal
(PID.TID 0000.0001)  OPEN_COPY_DATA_FILE: opening file data.cal
(PID.TID 0000.0001) // =======================================================
(PID.TID 0000.0001) // Parameter file "data.cal"
(PID.TID 0000.0001) // =======================================================
(PID.TID 0000.0001) >#
(PID.TID 0000.0001) ># *******************
(PID.TID 0000.0001) ># Calendar Parameters
(PID.TID 0000.0001) ># *******************
(PID.TID 0000.0001) > &CAL_NML
(PID.TID 0000.0001) > TheCalendar='gregorian',
(PID.TID 0000.0001) ># TheCalendar='model',
(PID.TID 0000.0001) > startDate_1=19790101,
(PID.TID 0000.0001) > startDate_2=000000,
(PID.TID 0000.0001) > /
(PID.TID 0000.0001) 
(PID.TID 0000.0001) CAL_READPARMS: finished reading data.cal
(PID.TID 0000.0001) EXF_READPARMS: opening data.exf
(PID.TID 0000.0001)  OPEN_COPY_DATA_FILE: opening file data.exf
(PID.TID 0000.0001) // =======================================================
(PID.TID 0000.0001) // Parameter file "data.exf"
(PID.TID 0000.0001) // =======================================================
(PID.TID 0000.0001) >#
(PID.TID 0000.0001) ># *********************
(PID.TID 0000.0001) ># External Forcing Data
(PID.TID 0000.0001) ># *********************
(PID.TID 0000.0001) > &EXF_NML_01
(PID.TID 0000.0001) >#
(PID.TID 0000.0001) > useExfCheckRange  = .TRUE.,
(PID.TID 0000.0001) > repeatPeriod      = 2635200.0,
(PID.TID 0000.0001) > exf_iprec         = 64,
(PID.TID 0000.0001) > exf_monFreq       = 86400000.,
(PID.TID 0000.0001) >#useRelativeWind = .TRUE.,
(PID.TID 0000.0001) >#
(PID.TID 0000.0001) > /
(PID.TID 0000.0001) >
(PID.TID 0000.0001) ># *********************
(PID.TID 0000.0001) > &EXF_NML_02
(PID.TID 0000.0001) >#
(PID.TID 0000.0001) >#ustressstartdate1 = 19781216,
(PID.TID 0000.0001) >#ustressstartdate2 = 180000,
(PID.TID 0000.0001) >#ustressperiod     = 2635200.0,
(PID.TID 0000.0001) >#
(PID.TID 0000.0001) >#vstressstartdate1 = 19781216,
(PID.TID 0000.0001) >#vstressstartdate2 = 180000,
(PID.TID 0000.0001) >#vstressperiod     = 2635200.0,
(PID.TID 0000.0001) >#
(PID.TID 0000.0001) > atempstartdate1   = 19781216,
(PID.TID 0000.0001) > atempstartdate2   = 180000,
(PID.TID 0000.0001) > atempperiod       = 2635200.0,
(PID.TID 0000.0001) >#
(PID.TID 0000.0001) > aqhstartdate1     = 19781216,
(PID.TID 0000.0001) > aqhstartdate2     = 180000,
(PID.TID 0000.0001) > aqhperiod         = 2635200.0,
(PID.TID 0000.0001) >#
(PID.TID 0000.0001) > precipstartdate1  = 19781216,
(PID.TID 0000.0001) > precipstartdate2  = 180000,
(PID.TID 0000.0001) > precipperiod      = 2635200.0,
(PID.TID 0000.0001) >#
(PID.TID 0000.0001) > uwindstartdate1   = 19781216,
(PID.TID 0000.0001) > uwindstartdate2   = 180000,
(PID.TID 0000.0001) > uwindperiod       = 2635200.0,
(PID.TID 0000.0001) >#
(PID.TID 0000.0001) > vwindstartdate1   = 19781216,
(PID.TID 0000.0001) > vwindstartdate2   = 180000,
(PID.TID 0000.0001) > vwindperiod       = 2635200.0,
(PID.TID 0000.0001) >#
(PID.TID 0000.0001) > swdownstartdate1  = 19781216,
(PID.TID 0000.0001) > swdownstartdate2  = 180000,
(PID.TID 0000.0001) > swdownperiod      = 2635200.0,
(PID.TID 0000.0001) >#
(PID.TID 0000.0001) > lwdownstartdate1  = 19781216,
(PID.TID 0000.0001) > lwdownstartdate2  = 180000,
(PID.TID 0000.0001) > lwdownperiod      = 2635200.0,
(PID.TID 0000.0001) >#
(PID.TID 0000.0001) > climsststartdate1  = 19781216,
(PID.TID 0000.0001) > climsststartdate2  = 180000,
(PID.TID 0000.0001) > climsstperiod      = 2635200.0,
(PID.TID 0000.0001) > climsstTauRelax    = 2592000.,
(PID.TID 0000.0001) >#
(PID.TID 0000.0001) > climsssstartdate1  = 19781216,
(PID.TID 0000.0001) > climsssstartdate2  = 180000,
(PID.TID 0000.0001) > climsssperiod      = 2635200.0,
(PID.TID 0000.0001) >#climsssTauRelax    = 2592000.,
(PID.TID 0000.0001) >#
(PID.TID 0000.0001) > ustressfile       = ' ',
(PID.TID 0000.0001) > vstressfile       = ' ',
(PID.TID 0000.0001) > atempfile         = 'tair_4x.bin',
(PID.TID 0000.0001) > aqhfile           = 'qa70_4x.bin',
(PID.TID 0000.0001) > uwindfile         = 'windx.bin',
(PID.TID 0000.0001) >#vwindfile         = 'windy.bin',
(PID.TID 0000.0001) > precipfile        = 'const_00.bin',
(PID.TID 0000.0001) > lwdownfile        = 'dlw_250.bin',
(PID.TID 0000.0001) > swdownfile        = 'dsw_100.bin',
(PID.TID 0000.0001) > runoffFile        = ' '
(PID.TID 0000.0001) > climsstfile       = 'tocn.bin',
(PID.TID 0000.0001) >#climsssfile       = 'socn.bin',
(PID.TID 0000.0001) > /
(PID.TID 0000.0001) >
(PID.TID 0000.0001) ># *********************
(PID.TID 0000.0001) > &EXF_NML_03
(PID.TID 0000.0001) >#exf_offset_atemp=5;
(PID.TID 0000.0001) > /
(PID.TID 0000.0001) >
(PID.TID 0000.0001) ># *********************
(PID.TID 0000.0001) ># old open64 compiler (4.2.1) cannot skip this namelist to read in the next one;
(PID.TID 0000.0001) ># comment out this namelist (not read).
(PID.TID 0000.0001) >#&EXF_NML_04
(PID.TID 0000.0001) >#&
(PID.TID 0000.0001) >
(PID.TID 0000.0001) ># *********************
(PID.TID 0000.0001) > &EXF_NML_OBCS
(PID.TID 0000.0001) > /
(PID.TID 0000.0001) 
(PID.TID 0000.0001) EXF_READPARMS: reading EXF_NML_01
(PID.TID 0000.0001) EXF_READPARMS: reading EXF_NML_02
(PID.TID 0000.0001) EXF_READPARMS: reading EXF_NML_03
(PID.TID 0000.0001) EXF_READPARMS: finished reading data.exf
(PID.TID 0000.0001) 
(PID.TID 0000.0001)  SEAICE_READPARMS: opening data.seaice
(PID.TID 0000.0001)  OPEN_COPY_DATA_FILE: opening file data.seaice
(PID.TID 0000.0001) // =======================================================
(PID.TID 0000.0001) // Parameter file "data.seaice"
(PID.TID 0000.0001) // =======================================================
(PID.TID 0000.0001) ># SEAICE parameters
(PID.TID 0000.0001) > &SEAICE_PARM01
(PID.TID 0000.0001) > SEAICErestoreUnderIce=.TRUE.,
(PID.TID 0000.0001) >#same freezing point as pkg/thsice
(PID.TID 0000.0001) > SEAICE_tempFrz0    = 0.0,
(PID.TID 0000.0001) > SEAICE_dTempFrz_dS = -5.4e-02,
(PID.TID 0000.0001) >#seaice growth parameters
(PID.TID 0000.0001) > HO = 0.2,
(PID.TID 0000.0001) ># these have no effect in seaice_growth_adx, so we comment it out
(PID.TID 0000.0001) >#SEAICE_frazilFrac  = 1.,
(PID.TID 0000.0001) >#SEAICE_areaLossFormula = 2,
(PID.TID 0000.0001) >#SEAICE_growMeltByConv = .TRUE.,
(PID.TID 0000.0001) >#SEAICE_doOpenWaterMelt = .TRUE.,
(PID.TID 0000.0001) >#- same mcPheePiston value as in thsice with surf-current=0.2 m/s
(PID.TID 0000.0001) >#SEAICE_mcPheePiston= 8.7854425e-5,
(PID.TID 0000.0001) >#SEAICE_saltFrac    = 0.3,
(PID.TID 0000.0001) > SEAICE_salt0       = 4.,
(PID.TID 0000.0001) >#simplest (constant) albedo scheme
(PID.TID 0000.0001) > SEAICE_dryIceAlb   = 0.6,
(PID.TID 0000.0001) > SEAICE_wetIceAlb   = 0.6,
(PID.TID 0000.0001) > SEAICE_drySnowAlb  = 0.6,
(PID.TID 0000.0001) > SEAICE_wetSnowAlb  = 0.6,
(PID.TID 0000.0001) >#
(PID.TID 0000.0001) > SEAICE_strength    = 2.6780e+04,
(PID.TID 0000.0001) > OCEAN_drag         = 8.1541e-04,
(PID.TID 0000.0001) > SEAICE_waterDrag   = 5.3508E-03,
(PID.TID 0000.0001) > SEAICEuseDYNAMICS  =.FALSE.,
(PID.TID 0000.0001) > LSR_ERROR          = 1.E-12,
(PID.TID 0000.0001) > SEAICElinearIterMax= 500,
(PID.TID 0000.0001) > LSR_mixIniGuess    = 1,
(PID.TID 0000.0001) ># this is default anyway, so we comment it out
(PID.TID 0000.0001) >#SEAICEuseFlooding  = .TRUE.,
(PID.TID 0000.0001) >#SEAICEadvScheme    = 77,
(PID.TID 0000.0001) >#SEAICEadvSnow      = .TRUE.,
(PID.TID 0000.0001) >#SEAICEadvSalt      = .TRUE.,
(PID.TID 0000.0001) > SEAICE_no_Slip     = .FALSE.,
(PID.TID 0000.0001) >#
(PID.TID 0000.0001) > HsnowFile          = 'const_00.bin',
(PID.TID 0000.0001) > HsaltFile          = 'const_00.bin',
(PID.TID 0000.0001) > AreaFile           = 'ice0_area.bin',
(PID.TID 0000.0001) > HeffFile           = 'ice0_heff.bin',
(PID.TID 0000.0001) > SEAICEwriteState   = .TRUE.,
(PID.TID 0000.0001) > SEAICE_monFreq = 43200.,
(PID.TID 0000.0001) > /
(PID.TID 0000.0001) >
(PID.TID 0000.0001) > &SEAICE_PARM02
(PID.TID 0000.0001) >  mult_ice   = 1.E-15,
(PID.TID 0000.0001) >  cost_ice_flag = 1,
(PID.TID 0000.0001) > /
(PID.TID 0000.0001) >
(PID.TID 0000.0001) > &SEAICE_PARM03
(PID.TID 0000.0001) > /
(PID.TID 0000.0001) 
(PID.TID 0000.0001)  SEAICE_READPARMS: finished reading data.seaice
(PID.TID 0000.0001) AUTODIFF_READPARMS: opening data.autodiff
(PID.TID 0000.0001)  OPEN_COPY_DATA_FILE: opening file data.autodiff
(PID.TID 0000.0001) // =======================================================
(PID.TID 0000.0001) // Parameter file "data.autodiff"
(PID.TID 0000.0001) // =======================================================
(PID.TID 0000.0001) > &AUTODIFF_PARM01
(PID.TID 0000.0001) > /
(PID.TID 0000.0001) 
(PID.TID 0000.0001) AUTODIFF_READPARMS: finished reading data.autodiff
(PID.TID 0000.0001) // ===================================
(PID.TID 0000.0001) // AUTODIFF parameters :
(PID.TID 0000.0001) // ===================================
(PID.TID 0000.0001) inAdExact = /* get an exact adjoint (no approximation) */
(PID.TID 0000.0001)                   T
(PID.TID 0000.0001)     ;
(PID.TID 0000.0001) useApproxAdvectionInAdMode = /* approximate AD-advection */
(PID.TID 0000.0001)                   F
(PID.TID 0000.0001)     ;
(PID.TID 0000.0001) cg2dFullAdjoint = /* use full hand written cg2d adjoint (no approximation) */
(PID.TID 0000.0001)                   F
(PID.TID 0000.0001)     ;
(PID.TID 0000.0001) useKPPinAdMode = /* use KPP in adjoint mode */
(PID.TID 0000.0001)                   F
(PID.TID 0000.0001)     ;
(PID.TID 0000.0001) useGMRediInAdMode = /* use GMRedi in adjoint mode */
(PID.TID 0000.0001)                   F
(PID.TID 0000.0001)     ;
(PID.TID 0000.0001) useSEAICEinAdMode = /* use SEAICE in adjoint mode */
(PID.TID 0000.0001)                   T
(PID.TID 0000.0001)     ;
(PID.TID 0000.0001) useGGL90inAdMode = /* use GGL90 in adjoint mode */
(PID.TID 0000.0001)                   F
(PID.TID 0000.0001)     ;
(PID.TID 0000.0001) useSALT_PLUMEinAdMode = /* use SALT_PLUME in adjoint mode */
(PID.TID 0000.0001)                   F
(PID.TID 0000.0001)     ;
(PID.TID 0000.0001) SEAICEuseDYNAMICSswitchInAd = /* switch On/Off SEAICE Dyn in AD mode */
(PID.TID 0000.0001)                   F
(PID.TID 0000.0001)     ;
(PID.TID 0000.0001) SEAICEuseFREEDRIFTswitchInAd= /* switch On/Off Free-Drift in AD mode */
(PID.TID 0000.0001)                   F
(PID.TID 0000.0001)     ;
(PID.TID 0000.0001) SEAICEapproxLevInAd = /* -1:SEAICE_FAKE, >0:other adjoint approximation */
(PID.TID 0000.0001)                       0
(PID.TID 0000.0001)     ;
(PID.TID 0000.0001) dumpAdVarExch = /* control adexch before dumpinp */
(PID.TID 0000.0001)                       2
(PID.TID 0000.0001)     ;
(PID.TID 0000.0001) mon_AdVarExch = /* control adexch before monitor */
(PID.TID 0000.0001)                       2
(PID.TID 0000.0001)     ;
(PID.TID 0000.0001) viscFacInFw = /* viscosity factor for forward model */
(PID.TID 0000.0001)                 1.000000000000000E+00
(PID.TID 0000.0001)     ;
(PID.TID 0000.0001) viscFacInAd = /* viscosity factor for adjoint */
(PID.TID 0000.0001)                 1.000000000000000E+00
(PID.TID 0000.0001)     ;
(PID.TID 0000.0001) SIregFacInAd = /* sea ice factor for adjoint model */
(PID.TID 0000.0001)                 1.234567000000000E+05
(PID.TID 0000.0001)     ;
(PID.TID 0000.0001) SIregFacInFw = /* sea ice factor for forward model */
(PID.TID 0000.0001)                 1.234567000000000E+05
(PID.TID 0000.0001)     ;
(PID.TID 0000.0001) 
(PID.TID 0000.0001) OPTIM_READPARMS: opening data.optim
(PID.TID 0000.0001)  OPEN_COPY_DATA_FILE: opening file data.optim
(PID.TID 0000.0001) // =======================================================
(PID.TID 0000.0001) // Parameter file "data.optim"
(PID.TID 0000.0001) // =======================================================
(PID.TID 0000.0001) >#
(PID.TID 0000.0001) ># ********************************
(PID.TID 0000.0001) ># Off-line optimization parameters
(PID.TID 0000.0001) ># ********************************
(PID.TID 0000.0001) > &OPTIM
(PID.TID 0000.0001) > optimcycle=0,
(PID.TID 0000.0001) > /
(PID.TID 0000.0001) 
(PID.TID 0000.0001) OPTIM_READPARMS: finished reading data.optim
(PID.TID 0000.0001) CTRL_READPARMS: opening data.ctrl
(PID.TID 0000.0001)  OPEN_COPY_DATA_FILE: opening file data.ctrl
(PID.TID 0000.0001) // =======================================================
(PID.TID 0000.0001) // Parameter file "data.ctrl"
(PID.TID 0000.0001) // =======================================================
(PID.TID 0000.0001) ># *********************
(PID.TID 0000.0001) ># general parameters and
(PID.TID 0000.0001) ># non-default ECCO legacy control variables
(PID.TID 0000.0001) ># *********************
(PID.TID 0000.0001) > &CTRL_NML
(PID.TID 0000.0001) >  doMainUnpack=.FALSE.,
(PID.TID 0000.0001) >  doMainPack=.FALSE.,
(PID.TID 0000.0001) >  ctrlprec = 32,
(PID.TID 0000.0001) > /
(PID.TID 0000.0001) >#
(PID.TID 0000.0001) ># *********************
(PID.TID 0000.0001) ># names for ctrl_pack/unpack
(PID.TID 0000.0001) ># *********************
(PID.TID 0000.0001) > &CTRL_PACKNAMES
(PID.TID 0000.0001) > /
(PID.TID 0000.0001) >#
(PID.TID 0000.0001) ># *********************
(PID.TID 0000.0001) ># names for CTRL_GENARR, CTRL_GENTIM
(PID.TID 0000.0001) ># *********************
(PID.TID 0000.0001) > &CTRL_NML_GENARR
(PID.TID 0000.0001) > xx_gentim2d_file(1)       = 'xx_atemp',
(PID.TID 0000.0001) > xx_gentim2d_weight(1)     = 'ones_32b.bin',
(PID.TID 0000.0001) >#
(PID.TID 0000.0001) > xx_gentim2d_file(2)       = 'xx_swdown',
(PID.TID 0000.0001) > xx_gentim2d_weight(2)     = 'ones_32b.bin',
(PID.TID 0000.0001) >#
(PID.TID 0000.0001) > xx_genarr3d_file(1)       = 'xx_theta',
(PID.TID 0000.0001) > xx_genarr3d_weight(1)     = 'ones_32b.bin',
(PID.TID 0000.0001) > /
(PID.TID 0000.0001) 
(PID.TID 0000.0001) CTRL_READPARMS: finished reading data.ctrl
(PID.TID 0000.0001) COST_READPARMS: opening data.cost
(PID.TID 0000.0001)  OPEN_COPY_DATA_FILE: opening file data.cost
(PID.TID 0000.0001) // =======================================================
(PID.TID 0000.0001) // Parameter file "data.cost"
(PID.TID 0000.0001) // =======================================================
(PID.TID 0000.0001) > &COST_NML
(PID.TID 0000.0001) > /
(PID.TID 0000.0001) 
(PID.TID 0000.0001) COST_READPARMS: finished reading data.cost
(PID.TID 0000.0001) GRDCHK_READPARMS: opening data.grdchk
(PID.TID 0000.0001)  OPEN_COPY_DATA_FILE: opening file data.grdchk
(PID.TID 0000.0001) // =======================================================
(PID.TID 0000.0001) // Parameter file "data.grdchk"
(PID.TID 0000.0001) // =======================================================
(PID.TID 0000.0001) > &GRDCHK_NML
(PID.TID 0000.0001) > grdchk_eps       = 1.d-2,
(PID.TID 0000.0001) > iglopos         = 10,
(PID.TID 0000.0001) > jglopos         = 10,
(PID.TID 0000.0001) > iGloTile         = 2,
(PID.TID 0000.0001) > jGloTile         = 2,
(PID.TID 0000.0001) > nbeg             = 1,
(PID.TID 0000.0001) > nstep            = 1,
(PID.TID 0000.0001) > nend             = 4,
(PID.TID 0000.0001) >#(grdchkvarindex   = 1 fails at freezing point)
(PID.TID 0000.0001) >#grdchkvarindex   = 1,
(PID.TID 0000.0001) ># this is xx_atemp
(PID.TID 0000.0001) ># grdchkvarindex   = 7,
(PID.TID 0000.0001) ># to test this with xx_gentim2d set 301, because xx_atemp is
(PID.TID 0000.0001) ># our first control variable (see data.ctrl)
(PID.TID 0000.0001) > grdchkvarindex   = 301,
(PID.TID 0000.0001) > /
(PID.TID 0000.0001) 
(PID.TID 0000.0001) GRDCHK_READPARMS: finished reading data.grdchk
(PID.TID 0000.0001) 
(PID.TID 0000.0001) // =======================================================
(PID.TID 0000.0001) // Gradient check configuration  >>> START <<<
(PID.TID 0000.0001) // =======================================================
(PID.TID 0000.0001) 
(PID.TID 0000.0001)   grdchkvarindex :                        301
(PID.TID 0000.0001)   eps:                              0.100E-01
(PID.TID 0000.0001)   First location:                           1
(PID.TID 0000.0001)   Last location:                            4
(PID.TID 0000.0001)   Increment:                                1
(PID.TID 0000.0001)   grdchkWhichProc:                          0
(PID.TID 0000.0001)   iLocTile =       2  ,    jLocTile =       2
(PID.TID 0000.0001) 
(PID.TID 0000.0001) // =======================================================
(PID.TID 0000.0001) // Gradient check configuration  >>> END <<<
(PID.TID 0000.0001) // =======================================================
(PID.TID 0000.0001) 
(PID.TID 0000.0001)  DIAGNOSTICS_READPARMS: opening data.diagnostics
(PID.TID 0000.0001)  OPEN_COPY_DATA_FILE: opening file data.diagnostics
(PID.TID 0000.0001) // =======================================================
(PID.TID 0000.0001) // Parameter file "data.diagnostics"
(PID.TID 0000.0001) // =======================================================
(PID.TID 0000.0001) ># Diagnostic Package Choices
(PID.TID 0000.0001) >#--------------------
(PID.TID 0000.0001) >#  dumpAtLast (logical): always write output at the end of simulation (default=F)
(PID.TID 0000.0001) >#  diag_mnc   (logical): write to NetCDF files (default=useMNC)
(PID.TID 0000.0001) >#--for each output-stream:
(PID.TID 0000.0001) >#  fileName(n) : prefix of the output file name (max 80c long) for outp.stream n
(PID.TID 0000.0001) >#  frequency(n):< 0 : write snap-shot output every |frequency| seconds
(PID.TID 0000.0001) >#               > 0 : write time-average output every frequency seconds
(PID.TID 0000.0001) >#  timePhase(n)     : write at time = timePhase + multiple of |frequency|
(PID.TID 0000.0001) >#    averagingFreq  : frequency (in s) for periodic averaging interval
(PID.TID 0000.0001) >#    averagingPhase : phase     (in s) for periodic averaging interval
(PID.TID 0000.0001) >#    repeatCycle    : number of averaging intervals in 1 cycle
(PID.TID 0000.0001) >#  levels(:,n) : list of levels to write to file (Notes: declared as REAL)
(PID.TID 0000.0001) >#                when this entry is missing, select all common levels of this list
(PID.TID 0000.0001) >#  fields(:,n) : list of selected diagnostics fields (8.c) in outp.stream n
(PID.TID 0000.0001) >#                (see "available_diagnostics.log" file for the full list of diags)
(PID.TID 0000.0001) >#  missing_value(n) : missing value for real-type fields in output file "n"
(PID.TID 0000.0001) >#  fileFlags(n)     : specific code (8c string) for output file "n"
(PID.TID 0000.0001) >#--------------------
(PID.TID 0000.0001) ># This example dumps EXF diagnostics as snapshot after 10 time-steps
(PID.TID 0000.0001) ># Note: EXF air-sea fluxes over Sea-Ice are wrong
(PID.TID 0000.0001) > &DIAGNOSTICS_LIST
(PID.TID 0000.0001) >   dumpAtLast  = .TRUE.,
(PID.TID 0000.0001) >#--
(PID.TID 0000.0001) >  fields(1:11,1) = 'EXFtaux ','EXFtauy ','EXFqnet ','EXFempmr',
(PID.TID 0000.0001) >                   'EXFhl   ','EXFhs   ','EXFswnet','EXFlwnet',
(PID.TID 0000.0001) >                   'EXFuwind','EXFvwind','EXFatemp',
(PID.TID 0000.0001) >#  fileName(1) = 'exfDiag',
(PID.TID 0000.0001) >  frequency(1) = 86400.,
(PID.TID 0000.0001) >
(PID.TID 0000.0001) >#- with pkg/thsice:
(PID.TID 0000.0001) ># fields(1:11,2) = 'SI_Fract','SI_Thick','THETA   ','SI_Tsrf ',
(PID.TID 0000.0001) >##                 'SI_Tsrf ','SI_Tice1','SI_Tice2',
(PID.TID 0000.0001) >##                 'SI_Qice1','SI_Qice2',
(PID.TID 0000.0001) >##                 'SIsnwPrc','SIalbedo','SIsnwAge',
(PID.TID 0000.0001) >##                 'oceQnet ','oceQsw  ','oceFWflx','oceSflux',
(PID.TID 0000.0001) >#                  'SIflx2oc','SIfrw2oc','SIsaltFx',
(PID.TID 0000.0001) >#                  'SIflxAtm','SIfrwAtm',
(PID.TID 0000.0001) >#                  'EXFqnet ','EXFempmr',
(PID.TID 0000.0001) >#- with pkg/seaice:
(PID.TID 0000.0001) >  fields(1:8,2)  = 'SIarea  ','SIheff  ','THETA   ','SItices ',
(PID.TID 0000.0001) >#                  'SIuice  ','SIvice  ','SIhsnow ',
(PID.TID 0000.0001) >#                  'oceQnet ','oceQsw  ','oceFWflx','oceSflux',
(PID.TID 0000.0001) >                   'SIqnet  ','SIqsw   ','SIempmr ','oceSflux',
(PID.TID 0000.0001) >#- comment out SIatmQnt (not filled in seaice_growth_adx.F):
(PID.TID 0000.0001) >#                  'SIatmQnt','SIatmFW ',
(PID.TID 0000.0001) >   fileName(2) = 'iceDiag',
(PID.TID 0000.0001) >  frequency(2) =  86400.,
(PID.TID 0000.0001) >  missing_value(2) = -999.,
(PID.TID 0000.0001) >
(PID.TID 0000.0001) >  fields(1:10,3) = 'SIarea  ','SIheff  ','THETA   ','SItices ',
(PID.TID 0000.0001) >                   'SIqnet  ','SIqsw   ','SIempmr ','oceSflux',
(PID.TID 0000.0001) >                   'SIatmQnt','SIatmFW ',
(PID.TID 0000.0001) >   fileName(3) = 'snapshot',
(PID.TID 0000.0001) >  frequency(3) = -86400.,
(PID.TID 0000.0001) >  timePhase(3) =  -3600.,
(PID.TID 0000.0001) >  missing_value(3) = -999.,
(PID.TID 0000.0001) >
(PID.TID 0000.0001) > /
(PID.TID 0000.0001) >
(PID.TID 0000.0001) >#--------------------
(PID.TID 0000.0001) ># Parameter for Diagnostics of per level statistics:
(PID.TID 0000.0001) >#--------------------
(PID.TID 0000.0001) >#  diagSt_mnc (logical): write stat-diags to NetCDF files (default=diag_mnc)
(PID.TID 0000.0001) >#  diagSt_regMaskFile : file containing the region-mask to read-in
(PID.TID 0000.0001) >#  nSetRegMskFile   : number of region-mask sets within the region-mask file
(PID.TID 0000.0001) >#  set_regMask(i)   : region-mask set-index that identifies the region "i"
(PID.TID 0000.0001) >#  val_regMask(i)   : region "i" identifier value in the region mask
(PID.TID 0000.0001) >#--for each output-stream:
(PID.TID 0000.0001) >#  stat_fName(n) : prefix of the output file name (max 80c long) for outp.stream n
(PID.TID 0000.0001) >#  stat_freq(n):< 0 : write snap-shot output every |stat_freq| seconds
(PID.TID 0000.0001) >#               > 0 : write time-average output every stat_freq seconds
(PID.TID 0000.0001) >#  stat_phase(n)    : write at time = stat_phase + multiple of |stat_freq|
(PID.TID 0000.0001) >#  stat_region(:,n) : list of "regions" (default: 1 region only=global)
(PID.TID 0000.0001) >#  stat_fields(:,n) : list of selected diagnostics fields (8.c) in outp.stream n
(PID.TID 0000.0001) >#                (see "available_diagnostics.log" file for the full list of diags)
(PID.TID 0000.0001) >#--------------------
(PID.TID 0000.0001) > &DIAG_STATIS_PARMS
(PID.TID 0000.0001) >#- with pkg/thsice:
(PID.TID 0000.0001) >#stat_fields(1:12,1) = 'SI_Fract','SI_Thick','SI_SnowH','THETA   ',
(PID.TID 0000.0001) >#stat_fields(1:11,1) = 'SI_Fract','SI_Thick','THETA   ',
(PID.TID 0000.0001) >#                      'SI_Tsrf ','SI_Tice1','SI_Tice2',
(PID.TID 0000.0001) >#                      'SIflx2oc','SIfrw2oc','SIsaltFx',
(PID.TID 0000.0001) >#                      'SIflxAtm','SIfrwAtm',
(PID.TID 0000.0001) >#- with pkg/seaice:
(PID.TID 0000.0001) >#stat_fields(1:11,1) = 'SIarea  ','SIheff  ','SIhsnow ',
(PID.TID 0000.0001) > stat_fields(1:8,1)  = 'SIarea  ','SIheff  ',
(PID.TID 0000.0001) >                       'THETA   ','SItices ',
(PID.TID 0000.0001) >#                      'oceQnet ','oceQsw  ','oceFWflx','oceSflux',
(PID.TID 0000.0001) >                       'SIqnet  ','SIqsw   ','SIempmr ','oceSflux',
(PID.TID 0000.0001) >#- comment out SIatmQnt (not filled in seaice_growth_adx.F):
(PID.TID 0000.0001) >#                      'SIatmQnt','SIatmFW ',
(PID.TID 0000.0001) >  stat_fName(1) = 'iceStDiag',
(PID.TID 0000.0001) >   stat_freq(1) = 43200.,
(PID.TID 0000.0001) >  stat_phase(1) = 3600.,
(PID.TID 0000.0001) > /
(PID.TID 0000.0001) 
(PID.TID 0000.0001) S/R DIAGNOSTICS_READPARMS, read namelist "diagnostics_list": start
(PID.TID 0000.0001) S/R DIAGNOSTICS_READPARMS, read namelist "diagnostics_list": OK
(PID.TID 0000.0001) S/R DIAGNOSTICS_READPARMS, read namelist "DIAG_STATIS_PARMS": start
(PID.TID 0000.0001) S/R DIAGNOSTICS_READPARMS, read namelist "DIAG_STATIS_PARMS": OK
(PID.TID 0000.0001)  DIAGNOSTICS_READPARMS: global parameter summary:
(PID.TID 0000.0001)  dumpAtLast = /* always write time-ave diags at the end */
(PID.TID 0000.0001)                   T
(PID.TID 0000.0001)     ;
(PID.TID 0000.0001)  diag_mnc =   /* write NetCDF output files */
(PID.TID 0000.0001)                   F
(PID.TID 0000.0001)     ;
(PID.TID 0000.0001)  useMissingValue = /* put MissingValue where mask = 0 */
(PID.TID 0000.0001)                   F
(PID.TID 0000.0001)     ;
(PID.TID 0000.0001)  diagCG_maxIters = /* max number of iters in diag_cg2d */
(PID.TID 0000.0001)                     500
(PID.TID 0000.0001)     ;
(PID.TID 0000.0001)  diagCG_resTarget = /* residual target for diag_cg2d */
(PID.TID 0000.0001)                 1.000000000000000E-12
(PID.TID 0000.0001)     ;
(PID.TID 0000.0001)  diagCG_pcOffDFac = /* preconditioner off-diagonal factor */
(PID.TID 0000.0001)                 9.611687812379854E-01
(PID.TID 0000.0001)     ;
(PID.TID 0000.0001) -----------------------------------------------------
(PID.TID 0000.0001)  DIAGNOSTICS_READPARMS: active diagnostics summary:
(PID.TID 0000.0001) -----------------------------------------------------
(PID.TID 0000.0001) Creating Output Stream: iceDiag
(PID.TID 0000.0001) Output Frequency:      86400.000000 ; Phase:           0.000000
(PID.TID 0000.0001)  Averaging Freq.:      86400.000000 , Phase:           0.000000 , Cycle:   1
(PID.TID 0000.0001)  missing value: -9.990000000000E+02
(PID.TID 0000.0001)  Levels:    will be set later
(PID.TID 0000.0001)  Fields:    SIarea   SIheff   THETA    SItices  SIqnet   SIqsw    SIempmr  oceSflux
(PID.TID 0000.0001) Creating Output Stream: snapshot
(PID.TID 0000.0001) Output Frequency:     -86400.000000 ; Phase:       -3600.000000
(PID.TID 0000.0001)  Averaging Freq.:          0.000000 , Phase:           0.000000 , Cycle:   1
(PID.TID 0000.0001)  missing value: -9.990000000000E+02
(PID.TID 0000.0001)  Levels:    will be set later
(PID.TID 0000.0001)  Fields:    SIarea   SIheff   THETA    SItices  SIqnet   SIqsw    SIempmr  oceSflux SIatmQnt SIatmFW
(PID.TID 0000.0001) -----------------------------------------------------
(PID.TID 0000.0001)  DIAGNOSTICS_READPARMS: statistics diags. summary:
(PID.TID 0000.0001) Creating Stats. Output Stream: iceStDiag
(PID.TID 0000.0001) Output Frequency:      43200.000000 ; Phase:        3600.000000
(PID.TID 0000.0001)  Regions:   0
(PID.TID 0000.0001)  Fields:    SIarea   SIheff   THETA    SItices  SIqnet   SIqsw    SIempmr  oceSflux
(PID.TID 0000.0001) -----------------------------------------------------
(PID.TID 0000.0001) 
(PID.TID 0000.0001) SET_PARMS: done
(PID.TID 0000.0001) Enter INI_VERTICAL_GRID: setInterFDr=    T ; setCenterDr=    F
(PID.TID 0000.0001) %MON XC_max                       =   3.9750000000000E+05
(PID.TID 0000.0001) %MON XC_min                       =   2.5000000000000E+03
(PID.TID 0000.0001) %MON XC_mean                      =   2.0000000000000E+05
(PID.TID 0000.0001) %MON XC_sd                        =   1.1546103238755E+05
(PID.TID 0000.0001) %MON XG_max                       =   3.9500000000000E+05
(PID.TID 0000.0001) %MON XG_min                       =   0.0000000000000E+00
(PID.TID 0000.0001) %MON XG_mean                      =   1.9750000000000E+05
(PID.TID 0000.0001) %MON XG_sd                        =   1.1546103238755E+05
(PID.TID 0000.0001) %MON DXC_max                      =   5.0000000000000E+03
(PID.TID 0000.0001) %MON DXC_min                      =   5.0000000000000E+03
(PID.TID 0000.0001) %MON DXC_mean                     =   5.0000000000000E+03
(PID.TID 0000.0001) %MON DXC_sd                       =   0.0000000000000E+00
(PID.TID 0000.0001) %MON DXF_max                      =   5.0000000000000E+03
(PID.TID 0000.0001) %MON DXF_min                      =   5.0000000000000E+03
(PID.TID 0000.0001) %MON DXF_mean                     =   5.0000000000000E+03
(PID.TID 0000.0001) %MON DXF_sd                       =   0.0000000000000E+00
(PID.TID 0000.0001) %MON DXG_max                      =   5.0000000000000E+03
(PID.TID 0000.0001) %MON DXG_min                      =   5.0000000000000E+03
(PID.TID 0000.0001) %MON DXG_mean                     =   5.0000000000000E+03
(PID.TID 0000.0001) %MON DXG_sd                       =   0.0000000000000E+00
(PID.TID 0000.0001) %MON DXV_max                      =   5.0000000000000E+03
(PID.TID 0000.0001) %MON DXV_min                      =   5.0000000000000E+03
(PID.TID 0000.0001) %MON DXV_mean                     =   5.0000000000000E+03
(PID.TID 0000.0001) %MON DXV_sd                       =   0.0000000000000E+00
(PID.TID 0000.0001) %MON YC_max                       =   9.7500000000000E+04
(PID.TID 0000.0001) %MON YC_min                       =  -1.0750000000000E+05
(PID.TID 0000.0001) %MON YC_mean                      =  -5.0000000000000E+03
(PID.TID 0000.0001) %MON YC_sd                        =   6.0604592785256E+04
(PID.TID 0000.0001) %MON YG_max                       =   9.5000000000000E+04
(PID.TID 0000.0001) %MON YG_min                       =  -1.1000000000000E+05
(PID.TID 0000.0001) %MON YG_mean                      =  -7.5000000000000E+03
(PID.TID 0000.0001) %MON YG_sd                        =   6.0604592785256E+04
(PID.TID 0000.0001) %MON DYC_max                      =   5.0000000000000E+03
(PID.TID 0000.0001) %MON DYC_min                      =   5.0000000000000E+03
(PID.TID 0000.0001) %MON DYC_mean                     =   5.0000000000000E+03
(PID.TID 0000.0001) %MON DYC_sd                       =   0.0000000000000E+00
(PID.TID 0000.0001) %MON DYF_max                      =   5.0000000000000E+03
(PID.TID 0000.0001) %MON DYF_min                      =   5.0000000000000E+03
(PID.TID 0000.0001) %MON DYF_mean                     =   5.0000000000000E+03
(PID.TID 0000.0001) %MON DYF_sd                       =   0.0000000000000E+00
(PID.TID 0000.0001) %MON DYG_max                      =   5.0000000000000E+03
(PID.TID 0000.0001) %MON DYG_min                      =   5.0000000000000E+03
(PID.TID 0000.0001) %MON DYG_mean                     =   5.0000000000000E+03
(PID.TID 0000.0001) %MON DYG_sd                       =   0.0000000000000E+00
(PID.TID 0000.0001) %MON DYU_max                      =   5.0000000000000E+03
(PID.TID 0000.0001) %MON DYU_min                      =   5.0000000000000E+03
(PID.TID 0000.0001) %MON DYU_mean                     =   5.0000000000000E+03
(PID.TID 0000.0001) %MON DYU_sd                       =   0.0000000000000E+00
(PID.TID 0000.0001) %MON RA_max                       =   2.5000000000000E+07
(PID.TID 0000.0001) %MON RA_min                       =   2.5000000000000E+07
(PID.TID 0000.0001) %MON RA_mean                      =   2.5000000000000E+07
(PID.TID 0000.0001) %MON RA_sd                        =   3.7252902984619E-09
(PID.TID 0000.0001) %MON RAW_max                      =   2.5000000000000E+07
(PID.TID 0000.0001) %MON RAW_min                      =   2.5000000000000E+07
(PID.TID 0000.0001) %MON RAW_mean                     =   2.5000000000000E+07
(PID.TID 0000.0001) %MON RAW_sd                       =   3.7252902984619E-09
(PID.TID 0000.0001) %MON RAS_max                      =   2.5000000000000E+07
(PID.TID 0000.0001) %MON RAS_min                      =   2.5000000000000E+07
(PID.TID 0000.0001) %MON RAS_mean                     =   2.5000000000000E+07
(PID.TID 0000.0001) %MON RAS_sd                       =   3.7252902984619E-09
(PID.TID 0000.0001) %MON RAZ_max                      =   2.5000000000000E+07
(PID.TID 0000.0001) %MON RAZ_min                      =   2.5000000000000E+07
(PID.TID 0000.0001) %MON RAZ_mean                     =   2.5000000000000E+07
(PID.TID 0000.0001) %MON RAZ_sd                       =   3.7252902984619E-09
(PID.TID 0000.0001) %MON AngleCS_max                  =   1.0000000000000E+00
(PID.TID 0000.0001) %MON AngleCS_min                  =   1.0000000000000E+00
(PID.TID 0000.0001) %MON AngleCS_mean                 =   1.0000000000000E+00
(PID.TID 0000.0001) %MON AngleCS_sd                   =   0.0000000000000E+00
(PID.TID 0000.0001) %MON AngleSN_max                  =   0.0000000000000E+00
(PID.TID 0000.0001) %MON AngleSN_min                  =   0.0000000000000E+00
(PID.TID 0000.0001) %MON AngleSN_mean                 =   0.0000000000000E+00
(PID.TID 0000.0001) %MON AngleSN_sd                   =   0.0000000000000E+00
(PID.TID 0000.0001) 
(PID.TID 0000.0001) // =======================================================
(PID.TID 0000.0001) // Calendar configuration >>> START <<<
(PID.TID 0000.0001) // =======================================================
(PID.TID 0000.0001) 
(PID.TID 0000.0001) modelstart = /* Start time of the model integration [s] */
(PID.TID 0000.0001)                 0.000000000000000E+00
(PID.TID 0000.0001)     ;
(PID.TID 0000.0001) modelend  = /* End time of the model integration [s] */
(PID.TID 0000.0001)                 4.320000000000000E+05
(PID.TID 0000.0001)     ;
(PID.TID 0000.0001) modelStep = /* Time interval for a model forward step [s] */
(PID.TID 0000.0001)                 3.600000000000000E+03
(PID.TID 0000.0001)     ;
(PID.TID 0000.0001) usingGregorianCalendar= /* Calendar Type: Gregorian Calendar */
(PID.TID 0000.0001)                   T
(PID.TID 0000.0001)     ;
(PID.TID 0000.0001) usingJulianCalendar = /* Calendar Type: Julian Calendar */
(PID.TID 0000.0001)                   F
(PID.TID 0000.0001)     ;
(PID.TID 0000.0001) usingNoLeapYearCal  = /* Calendar Type: without Leap Year */
(PID.TID 0000.0001)                   F
(PID.TID 0000.0001)     ;
(PID.TID 0000.0001) usingModelCalendar  = /* Calendar Type: Model Calendar */
(PID.TID 0000.0001)                   F
(PID.TID 0000.0001)     ;
(PID.TID 0000.0001) modelStartDate YYYYMMDD = /* Model start date YYYY-MM-DD */
(PID.TID 0000.0001)                19790101
(PID.TID 0000.0001)     ;
(PID.TID 0000.0001)   modelStartDate HHMMSS = /* Model start date HH-MM-SS  */
(PID.TID 0000.0001)                       0
(PID.TID 0000.0001)     ;
(PID.TID 0000.0001) modelEndDate   YYYYMMDD = /* Model end date YYYY-MM-DD */
(PID.TID 0000.0001)                19790106
(PID.TID 0000.0001)     ;
(PID.TID 0000.0001)   modelEndDate   HHMMSS = /* Model end date HH-MM-SS  */
(PID.TID 0000.0001)                       0
(PID.TID 0000.0001)     ;
(PID.TID 0000.0001) intyears = /* Number of calendar years affected by the integration */
(PID.TID 0000.0001)                       1
(PID.TID 0000.0001)     ;
(PID.TID 0000.0001) intmonths= /* Number of calendar months affected by the integration */
(PID.TID 0000.0001)                       1
(PID.TID 0000.0001)     ;
(PID.TID 0000.0001) intdays = /* Number of calendar days affected by the integration */
(PID.TID 0000.0001)                       5
(PID.TID 0000.0001)     ;
(PID.TID 0000.0001) modelIter0 = /* Base timestep number  */
(PID.TID 0000.0001)                       0
(PID.TID 0000.0001)     ;
(PID.TID 0000.0001) modelIterEnd = /* Final timestep number  */
(PID.TID 0000.0001)                     120
(PID.TID 0000.0001)     ;
(PID.TID 0000.0001) modelIntSteps= /* Number of model timesteps  */
(PID.TID 0000.0001)                     120
(PID.TID 0000.0001)     ;
(PID.TID 0000.0001) 
(PID.TID 0000.0001) // =======================================================
(PID.TID 0000.0001) // Calendar configuration  >>> END <<<
(PID.TID 0000.0001) // =======================================================
(PID.TID 0000.0001) 
(PID.TID 0000.0001) GAD_INIT_FIXED: GAD_OlMinSize=  0  0  1
(PID.TID 0000.0001) 
(PID.TID 0000.0001) // ===================================
(PID.TID 0000.0001) // GAD parameters :
(PID.TID 0000.0001) // ===================================
(PID.TID 0000.0001) tempAdvScheme =   /* Temp. Horiz.Advection scheme selector */
(PID.TID 0000.0001)                       2
(PID.TID 0000.0001)     ;
(PID.TID 0000.0001) tempVertAdvScheme =   /* Temp. Vert. Advection scheme selector */
(PID.TID 0000.0001)                       2
(PID.TID 0000.0001)     ;
(PID.TID 0000.0001) tempMultiDimAdvec =   /* use Muti-Dim Advec method for Temp */
(PID.TID 0000.0001)                   F
(PID.TID 0000.0001)     ;
(PID.TID 0000.0001) tempSOM_Advection = /* use 2nd Order Moment Advection for Temp */
(PID.TID 0000.0001)                   F
(PID.TID 0000.0001)     ;
(PID.TID 0000.0001) AdamsBashforthGt = /* apply Adams-Bashforth extrapolation on Gt */
(PID.TID 0000.0001)                   T
(PID.TID 0000.0001)     ;
(PID.TID 0000.0001) AdamsBashforth_T = /* apply Adams-Bashforth extrapolation on Temp */
(PID.TID 0000.0001)                   F
(PID.TID 0000.0001)     ;
(PID.TID 0000.0001) saltAdvScheme =   /* Salt. Horiz.advection scheme selector */
(PID.TID 0000.0001)                       2
(PID.TID 0000.0001)     ;
(PID.TID 0000.0001) saltVertAdvScheme =   /* Salt. Vert. Advection scheme selector */
(PID.TID 0000.0001)                       2
(PID.TID 0000.0001)     ;
(PID.TID 0000.0001) saltMultiDimAdvec =   /* use Muti-Dim Advec method for Salt */
(PID.TID 0000.0001)                   F
(PID.TID 0000.0001)     ;
(PID.TID 0000.0001) saltSOM_Advection = /* use 2nd Order Moment Advection for Salt */
(PID.TID 0000.0001)                   F
(PID.TID 0000.0001)     ;
(PID.TID 0000.0001) AdamsBashforthGs = /* apply Adams-Bashforth extrapolation on Gs */
(PID.TID 0000.0001)                   F
(PID.TID 0000.0001)     ;
(PID.TID 0000.0001) AdamsBashforth_S = /* apply Adams-Bashforth extrapolation on Salt */
(PID.TID 0000.0001)                   F
(PID.TID 0000.0001)     ;
(PID.TID 0000.0001) // ===================================
(PID.TID 0000.0001) 
(PID.TID 0000.0001) // =======================================================
(PID.TID 0000.0001) // External forcing (EXF) configuration >>> START <<<
(PID.TID 0000.0001) // =======================================================
(PID.TID 0000.0001) 
(PID.TID 0000.0001)  EXF general parameters:
(PID.TID 0000.0001) 
(PID.TID 0000.0001) exf_iprec = /* exf file precision */
(PID.TID 0000.0001)                      64
(PID.TID 0000.0001)     ;
(PID.TID 0000.0001) useExfYearlyFields = /* add extension _YEAR to input file names */
(PID.TID 0000.0001)                   F
(PID.TID 0000.0001)     ;
(PID.TID 0000.0001) twoDigitYear = /* use 2-digit year extension */
(PID.TID 0000.0001)                   F
(PID.TID 0000.0001)     ;
(PID.TID 0000.0001) useExfCheckRange = /* check for fields range */
(PID.TID 0000.0001)                   T
(PID.TID 0000.0001)     ;
(PID.TID 0000.0001) diags_opOceWeighted = /* weight flux diags by open-ocean fraction */
(PID.TID 0000.0001)                   T
(PID.TID 0000.0001)     ;
(PID.TID 0000.0001) exf_debugLev = /* select EXF-debug printing level */
(PID.TID 0000.0001)                       1
(PID.TID 0000.0001)     ;
(PID.TID 0000.0001) exf_monFreq  = /* EXF monitor frequency [ s ] */
(PID.TID 0000.0001)                 8.640000000000000E+07
(PID.TID 0000.0001)     ;
(PID.TID 0000.0001) exf_adjMonSelect = /* select group of exf AD-variables to monitor */
(PID.TID 0000.0001)                       1
(PID.TID 0000.0001)     ;
(PID.TID 0000.0001) repeatPeriod = /* period for cycling forcing dataset [ s ] */
(PID.TID 0000.0001)                 2.635200000000000E+06
(PID.TID 0000.0001)     ;
(PID.TID 0000.0001) climTempFreeze= /* Minimum climatological temperature [deg.C] */
(PID.TID 0000.0001)                -1.900000000000000E+00
(PID.TID 0000.0001)     ;
(PID.TID 0000.0001) windStressMax = /* Maximum absolute windstress [ Pa ] */
(PID.TID 0000.0001)                 2.000000000000000E+00
(PID.TID 0000.0001)     ;
(PID.TID 0000.0001) stressIsOnCgrid = /* set u,v_stress on Arakawa C-grid */
(PID.TID 0000.0001)                   F
(PID.TID 0000.0001)     ;
(PID.TID 0000.0001) rotateStressOnAgrid = /* rotate u,v_stress on Arakawa A-grid */
(PID.TID 0000.0001)                   F
(PID.TID 0000.0001)     ;
(PID.TID 0000.0001) cen2kel = /* conversion of deg. Centigrade to Kelvin [K] */
(PID.TID 0000.0001)                 2.731500000000000E+02
(PID.TID 0000.0001)     ;
(PID.TID 0000.0001) gravity_mks= /* gravitational acceleration [m/s^2] */
(PID.TID 0000.0001)                 9.810000000000000E+00
(PID.TID 0000.0001)     ;
(PID.TID 0000.0001) atmrho =  /* mean atmospheric density [kg/m^3] */
(PID.TID 0000.0001)                 1.200000000000000E+00
(PID.TID 0000.0001)     ;
(PID.TID 0000.0001) atmcp =  /* mean atmospheric specific heat [J/kg/K] */
(PID.TID 0000.0001)                 1.005000000000000E+03
(PID.TID 0000.0001)     ;
(PID.TID 0000.0001) flamb =  /* latent heat of evaporation [J/kg] */
(PID.TID 0000.0001)                 2.500000000000000E+06
(PID.TID 0000.0001)     ;
(PID.TID 0000.0001) flami =  /* latent heat of pure-ice melting [J/kg] */
(PID.TID 0000.0001)                 3.340000000000000E+05
(PID.TID 0000.0001)     ;
(PID.TID 0000.0001) cvapor_fac = /* const. for Saturation calculation [?] */
(PID.TID 0000.0001)                 6.403800000000000E+05
(PID.TID 0000.0001)     ;
(PID.TID 0000.0001) cvapor_exp = /* const. for Saturation calculation [?] */
(PID.TID 0000.0001)                 5.107400000000000E+03
(PID.TID 0000.0001)     ;
(PID.TID 0000.0001) cvapor_fac_ice= /* const. for Saturation calculation [?] */
(PID.TID 0000.0001)                 1.163780000000000E+07
(PID.TID 0000.0001)     ;
(PID.TID 0000.0001) cvapor_exp_ice= /* const. for Saturation calculation [?] */
(PID.TID 0000.0001)                 5.897800000000000E+03
(PID.TID 0000.0001)     ;
(PID.TID 0000.0001) humid_fac = /* humidity coef. in virtual temp. [(kg/kg)^-1] */
(PID.TID 0000.0001)                 6.060000000000000E-01
(PID.TID 0000.0001)     ;
(PID.TID 0000.0001) gamma_blk = /* adiabatic lapse rate [?] */
(PID.TID 0000.0001)                 1.000000000000000E-02
(PID.TID 0000.0001)     ;
(PID.TID 0000.0001) saltsat = /* reduction of Qsat over salty water [-] */
(PID.TID 0000.0001)                 9.800000000000000E-01
(PID.TID 0000.0001)     ;
(PID.TID 0000.0001) noNegativeEvap = /* prevent negative Evaporation */
(PID.TID 0000.0001)                   F
(PID.TID 0000.0001)     ;
(PID.TID 0000.0001) sstExtrapol = /* extrapolation coeff from lev. 1 & 2 to surf [-] */
(PID.TID 0000.0001)                 0.000000000000000E+00
(PID.TID 0000.0001)     ;
(PID.TID 0000.0001) cDrag_1 = /* coef used in drag calculation [?] */
(PID.TID 0000.0001)                 2.700000000000000E-03
(PID.TID 0000.0001)     ;
(PID.TID 0000.0001) cDrag_2 = /* coef used in drag calculation [?] */
(PID.TID 0000.0001)                 1.420000000000000E-04
(PID.TID 0000.0001)     ;
(PID.TID 0000.0001) cDrag_3 = /* coef used in drag calculation [?] */
(PID.TID 0000.0001)                 7.640000000000000E-05
(PID.TID 0000.0001)     ;
(PID.TID 0000.0001) cStanton_1 = /* coef used in Stanton number calculation [?] */
(PID.TID 0000.0001)                 3.270000000000000E-02
(PID.TID 0000.0001)     ;
(PID.TID 0000.0001) cStanton_2 = /* coef used in Stanton number calculation [?] */
(PID.TID 0000.0001)                 1.800000000000000E-02
(PID.TID 0000.0001)     ;
(PID.TID 0000.0001) cDalton = /* coef used in Dalton number calculation [?] */
(PID.TID 0000.0001)                 3.460000000000000E-02
(PID.TID 0000.0001)     ;
(PID.TID 0000.0001) exf_scal_BulkCdn= /* Drag coefficient scaling factor [-] */
(PID.TID 0000.0001)                 1.000000000000000E+00
(PID.TID 0000.0001)     ;
(PID.TID 0000.0001) zolmin = /* minimum stability parameter [?] */
(PID.TID 0000.0001)                -1.000000000000000E+02
(PID.TID 0000.0001)     ;
(PID.TID 0000.0001) psim_fac = /* coef used in turbulent fluxes calculation [-] */
(PID.TID 0000.0001)                 5.000000000000000E+00
(PID.TID 0000.0001)     ;
(PID.TID 0000.0001) zref =  /* reference height [ m ] */
(PID.TID 0000.0001)                 1.000000000000000E+01
(PID.TID 0000.0001)     ;
(PID.TID 0000.0001) hu =  /* height of mean wind [ m ] */
(PID.TID 0000.0001)                 1.000000000000000E+01
(PID.TID 0000.0001)     ;
(PID.TID 0000.0001) ht =  /* height of mean temperature [ m ] */
(PID.TID 0000.0001)                 2.000000000000000E+00
(PID.TID 0000.0001)     ;
(PID.TID 0000.0001) hq =  /* height of mean spec.humidity [ m ] */
(PID.TID 0000.0001)                 2.000000000000000E+00
(PID.TID 0000.0001)     ;
(PID.TID 0000.0001) uMin = /* minimum wind speed [m/s] */
(PID.TID 0000.0001)                 5.000000000000000E-01
(PID.TID 0000.0001)     ;
(PID.TID 0000.0001) useStabilityFct_overIce= /* transfert Coeffs over sea-ice depend on stability */
(PID.TID 0000.0001)                   F
(PID.TID 0000.0001)     ;
(PID.TID 0000.0001) exf_iceCd = /* drag coefficient over sea-ice (fixed) [-] */
(PID.TID 0000.0001)                 1.630000000000000E-03
(PID.TID 0000.0001)     ;
(PID.TID 0000.0001) exf_iceCe = /* transfert coeff. over sea-ice, for Evap (fixed) [-] */
(PID.TID 0000.0001)                 1.630000000000000E-03
(PID.TID 0000.0001)     ;
(PID.TID 0000.0001) exf_iceCh = /* transfert coeff. over sea-ice, Sens.Heat.(fixed)[-] */
(PID.TID 0000.0001)                 1.630000000000000E-03
(PID.TID 0000.0001)     ;
(PID.TID 0000.0001) exf_albedo =  /* Sea-water albedo [-] */
(PID.TID 0000.0001)                 1.000000000000000E-01
(PID.TID 0000.0001)     ;
(PID.TID 0000.0001) useExfZenAlbedo = /* Sea-water albedo varies with zenith angle */
(PID.TID 0000.0001)                   F
(PID.TID 0000.0001)     ;
(PID.TID 0000.0001) select_ZenAlbedo = /* Sea-water albedo computation method */
(PID.TID 0000.0001)                       0
(PID.TID 0000.0001)     ;
(PID.TID 0000.0001) useExfZenIncoming = /* compute incoming solar radiation */
(PID.TID 0000.0001)                   F
(PID.TID 0000.0001)     ;
(PID.TID 0000.0001) ocean_emissivity = /* longwave ocean-surface emissivity [-] */
(PID.TID 0000.0001)                 9.700176366843034E-01
(PID.TID 0000.0001)     ;
(PID.TID 0000.0001) ice_emissivity = /* longwave seaice emissivity [-] */
(PID.TID 0000.0001)                 9.500000000000000E-01
(PID.TID 0000.0001)     ;
(PID.TID 0000.0001) snow_emissivity = /* longwave snow  emissivity [-] */
(PID.TID 0000.0001)                 9.500000000000000E-01
(PID.TID 0000.0001)     ;
(PID.TID 0000.0001) 
(PID.TID 0000.0001)  EXF main CPP flags:
(PID.TID 0000.0001) 
(PID.TID 0000.0001) // USE_EXF_INTERPOLATION:          NOT defined
(PID.TID 0000.0001) // ALLOW_ATM_TEMP:                     defined
(PID.TID 0000.0001) // ALLOW_ATM_WIND (useAtmWind):        defined
(PID.TID 0000.0001) // ALLOW_DOWNWARD_RADIATION:           defined
(PID.TID 0000.0001) // ALLOW_BULKFORMULAE:                 defined
(PID.TID 0000.0001) 
(PID.TID 0000.0001)    Zonal wind forcing starts at                   -1317600.
(PID.TID 0000.0001)    Zonal wind forcing period is                    2635200.
(PID.TID 0000.0001)    Zonal wind forcing repeat-cycle is              2635200.
(PID.TID 0000.0001)    Zonal wind forcing is read from file:
(PID.TID 0000.0001)    >> windx.bin <<
(PID.TID 0000.0001) 
(PID.TID 0000.0001)    Atmospheric temperature starts at              -1317600.
(PID.TID 0000.0001)    Atmospheric temperature period is               2635200.
(PID.TID 0000.0001)    Atmospheric temperature repeat-cycle is         2635200.
(PID.TID 0000.0001)    Atmospheric temperature is read from file:
(PID.TID 0000.0001)    >> tair_4x.bin <<
(PID.TID 0000.0001) 
(PID.TID 0000.0001)    Atmospheric specific humidity starts at        -1317600.
(PID.TID 0000.0001)    Atmospheric specific humidity period is         2635200.
(PID.TID 0000.0001)    Atmospheric specific humidity rep-cycle is      2635200.
(PID.TID 0000.0001)    Atmospheric specific humidity is read from file:
(PID.TID 0000.0001)    >> qa70_4x.bin <<
(PID.TID 0000.0001) 
(PID.TID 0000.0001) // ALLOW_READ_TURBFLUXES:          NOT defined
(PID.TID 0000.0001) // EXF_READ_EVAP:                  NOT defined
(PID.TID 0000.0001) 
(PID.TID 0000.0001)    Precipitation data starts at                   -1317600.
(PID.TID 0000.0001)    Precipitation data period is                    2635200.
(PID.TID 0000.0001)    Precipitation data repeat-cycle is              2635200.
(PID.TID 0000.0001)    Precipitation data is read from file:
(PID.TID 0000.0001)    >> const_00.bin <<
(PID.TID 0000.0001) 
(PID.TID 0000.0001) // ALLOW_RUNOFF:                       defined
(PID.TID 0000.0001) // ALLOW_RUNOFTEMP:                NOT defined
(PID.TID 0000.0001) // ALLOW_SALTFLX:                  NOT defined
(PID.TID 0000.0001) 
(PID.TID 0000.0001)    Downward shortwave flux starts at              -1317600.
(PID.TID 0000.0001)    Downward shortwave flux period is               2635200.
(PID.TID 0000.0001)    Downward shortwave flux repeat-cycle is         2635200.
(PID.TID 0000.0001)    Downward shortwave flux is read from file:
(PID.TID 0000.0001)    >> dsw_100.bin <<
(PID.TID 0000.0001) 
(PID.TID 0000.0001)    Downward longwave flux starts at               -1317600.
(PID.TID 0000.0001)    Downward longwave flux period is                2635200.
(PID.TID 0000.0001)    Downward longwave flux repeat-cycle is          2635200.
(PID.TID 0000.0001)    Downward longwave flux is read from file:
(PID.TID 0000.0001)    >> dlw_250.bin <<
(PID.TID 0000.0001) 
(PID.TID 0000.0001) // =======================================================
(PID.TID 0000.0001) // External forcing (EXF) climatology configuration :
(PID.TID 0000.0001) // =======================================================
(PID.TID 0000.0001) 
(PID.TID 0000.0001) // ALLOW_CLIMSST_RELAXATION:           defined
(PID.TID 0000.0001)    Climatological SST starts at                   -1317600.
(PID.TID 0000.0001)    Climatological SST period is                    2635200.
(PID.TID 0000.0001)    Climatological SST repeat-cycle is              2635200.
(PID.TID 0000.0001)    Climatological SST is read from file:
(PID.TID 0000.0001)    >> tocn.bin <<
(PID.TID 0000.0001) 
(PID.TID 0000.0001) // ALLOW_CLIMSSS_RELAXATION:           defined
(PID.TID 0000.0001)    climsss relaxation is NOT used
(PID.TID 0000.0001) 
(PID.TID 0000.0001) // =======================================================
(PID.TID 0000.0001) // External forcing (EXF) configuration  >>> END <<<
(PID.TID 0000.0001) // =======================================================
(PID.TID 0000.0001) 
(PID.TID 0000.0001) // =======================================================
(PID.TID 0000.0001) // Seaice configuration (SEAICE_PARM01) >>> START <<<
(PID.TID 0000.0001) // =======================================================
(PID.TID 0000.0001) 
(PID.TID 0000.0001)    Seaice time stepping configuration   > START <
(PID.TID 0000.0001)    ----------------------------------------------
(PID.TID 0000.0001) SEAICE_deltaTtherm= /* thermodynamic timestep */
(PID.TID 0000.0001)                 3.600000000000000E+03
(PID.TID 0000.0001)     ;
(PID.TID 0000.0001) SEAICE_deltaTdyn  = /* dynamic timestep */
(PID.TID 0000.0001)                 3.600000000000000E+03
(PID.TID 0000.0001)     ;
(PID.TID 0000.0001) SEAICE_deltaTevp  = /* EVP timestep */
(PID.TID 0000.0001)                 1.234567000000000E+05
(PID.TID 0000.0001)     ;
(PID.TID 0000.0001) SEAICEuseBDF2  = /* use backw. differencing for mom. eq. */
(PID.TID 0000.0001)                   F
(PID.TID 0000.0001)     ;
(PID.TID 0000.0001) SEAICEupdateOceanStress= /* update Ocean surf. stress */
(PID.TID 0000.0001)                   T
(PID.TID 0000.0001)     ;
(PID.TID 0000.0001) SEAICErestoreUnderIce  = /* restore T and S under ice */
(PID.TID 0000.0001)                   T
(PID.TID 0000.0001)     ;
(PID.TID 0000.0001) 
(PID.TID 0000.0001)    Seaice dynamics configuration   > START <
(PID.TID 0000.0001)    ------------------------------------------
(PID.TID 0000.0001) SEAICEuseDYNAMICS = /* use dynamics */
(PID.TID 0000.0001)                   F
(PID.TID 0000.0001)     ;
(PID.TID 0000.0001)    pkg/seaice dynamics is OFF
(PID.TID 0000.0001) 
(PID.TID 0000.0001)    Seaice advection diffusion config,   > START <
(PID.TID 0000.0001)    -----------------------------------------------
(PID.TID 0000.0001) SEAICEmomAdvection = /* advect sea ice momentum */
(PID.TID 0000.0001)                   F
(PID.TID 0000.0001)     ;
(PID.TID 0000.0001) SEAICEadvHeff = /* advect effective ice thickness */
(PID.TID 0000.0001)                   T
(PID.TID 0000.0001)     ;
(PID.TID 0000.0001) SEAICEadvArea = /* advect fractional ice area */
(PID.TID 0000.0001)                   T
(PID.TID 0000.0001)     ;
(PID.TID 0000.0001) SEAICEadvSnow = /* advect snow layer together with ice */
(PID.TID 0000.0001)                   T
(PID.TID 0000.0001)     ;
(PID.TID 0000.0001) SEAICEadvScheme   = /* advection scheme for ice */
(PID.TID 0000.0001)                      77
(PID.TID 0000.0001)     ;
(PID.TID 0000.0001) SEAICEadvSchArea   = /* advection scheme for area */
(PID.TID 0000.0001)                      77
(PID.TID 0000.0001)     ;
(PID.TID 0000.0001) SEAICEadvSchHeff   = /* advection scheme for thickness */
(PID.TID 0000.0001)                      77
(PID.TID 0000.0001)     ;
(PID.TID 0000.0001) SEAICEadvSchSnow   = /* advection scheme for snow */
(PID.TID 0000.0001)                      77
(PID.TID 0000.0001)     ;
(PID.TID 0000.0001) SEAICEdiffKhArea   = /* diffusivity (m^2/s) for area */
(PID.TID 0000.0001)                 0.000000000000000E+00
(PID.TID 0000.0001)     ;
(PID.TID 0000.0001) SEAICEdiffKhHeff   = /* diffusivity (m^2/s) for heff */
(PID.TID 0000.0001)                 0.000000000000000E+00
(PID.TID 0000.0001)     ;
(PID.TID 0000.0001) SEAICEdiffKhSnow   = /* diffusivity (m^2/s) for snow */
(PID.TID 0000.0001)                 0.000000000000000E+00
(PID.TID 0000.0001)     ;
(PID.TID 0000.0001) DIFF1             = /* parameter used in advect.F [m/s] */
(PID.TID 0000.0001)                 0.000000000000000E+00
(PID.TID 0000.0001)     ;
(PID.TID 0000.0001) 
(PID.TID 0000.0001)    Seaice thermodynamics configuration   > START <
(PID.TID 0000.0001)    -----------------------------------------------
(PID.TID 0000.0001) SEAICE_rhoIce     = /* density of sea ice (kg/m3) */
(PID.TID 0000.0001)                 9.100000000000000E+02
(PID.TID 0000.0001)     ;
(PID.TID 0000.0001) SEAICE_rhoSnow    = /* density of snow (kg/m3) */
(PID.TID 0000.0001)                 3.300000000000000E+02
(PID.TID 0000.0001)     ;
(PID.TID 0000.0001) SEAICE_rhoAir     = /* density of air (kg/m3) */
(PID.TID 0000.0001)                 1.200000000000000E+00
(PID.TID 0000.0001)     ;
(PID.TID 0000.0001) usePW79thermodynamics  = /* default 0-layer TD */
(PID.TID 0000.0001)                   T
(PID.TID 0000.0001)     ;
(PID.TID 0000.0001) SEAICE_USE_GROWTH_ADX defined, using seaice_growth_adx code
(PID.TID 0000.0001) 
(PID.TID 0000.0001) SEAICE_lhEvap     = /* latent heat of evaporation */
(PID.TID 0000.0001)                 2.500000000000000E+06
(PID.TID 0000.0001)     ;
(PID.TID 0000.0001) SEAICE_lhFusion   = /* latent heat of fusion */
(PID.TID 0000.0001)                 3.340000000000000E+05
(PID.TID 0000.0001)     ;
(PID.TID 0000.0001) SEAICE_mcPheePiston = /* turbulent flux "piston velocity" a la McPhee (m/s) */
(PID.TID 0000.0001)                 8.749999999999999E-04
(PID.TID 0000.0001)     ;
(PID.TID 0000.0001) SEAICE_mcPheeTaper = /* tapering of turbulent flux (0.< <1.) for AREA=1. */
(PID.TID 0000.0001)                 0.000000000000000E+00
(PID.TID 0000.0001)     ;
(PID.TID 0000.0001) SEAICE_mcPheeStepFunc = /* replace linear tapering with step funct. */
(PID.TID 0000.0001)                   F
(PID.TID 0000.0001)     ;
(PID.TID 0000.0001) SEAICE_frazilFrac = /* frazil (T<tempFrz) to seaice conversion rate (0.< <1.) */
(PID.TID 0000.0001)                 1.000000000000000E+00
(PID.TID 0000.0001)     ;
(PID.TID 0000.0001) SEAICE_tempFrz0   = /* freezing temp. of sea water (intercept) */
(PID.TID 0000.0001)                 0.000000000000000E+00
(PID.TID 0000.0001)     ;
(PID.TID 0000.0001) SEAICE_dTempFrz_dS= /* freezing temp. of sea water (slope) */
(PID.TID 0000.0001)                -5.400000000000000E-02
(PID.TID 0000.0001)     ;
(PID.TID 0000.0001) SEAICE_growMeltByConv  = /* grow,melt by vert. conv. */
(PID.TID 0000.0001)                   F
(PID.TID 0000.0001)     ;
(PID.TID 0000.0001) SEAICE_doOpenWaterGrowth = /* grow by open water */
(PID.TID 0000.0001)                   T
(PID.TID 0000.0001)     ;
(PID.TID 0000.0001) SEAICE_doOpenWaterMelt = /* melt by open water */
(PID.TID 0000.0001)                   F
(PID.TID 0000.0001)     ;
(PID.TID 0000.0001) SEAICE_areaGainFormula = /* ice cover gain formula (1,2)*/
(PID.TID 0000.0001)                       1
(PID.TID 0000.0001)     1=from growth by ATM
(PID.TID 0000.0001)     2=from predicted growth by ATM
(PID.TID 0000.0001)     ;
(PID.TID 0000.0001) SEAICE_areaLossFormula = /* ice cover loss formula (1,2)*/
(PID.TID 0000.0001)                       1
(PID.TID 0000.0001)     1=from all but only melt conributions by ATM and OCN
(PID.TID 0000.0001)     2=from net melt-grow>0 by ATM and OCN
(PID.TID 0000.0001)     3=from predicted melt by ATM
(PID.TID 0000.0001)     ;
(PID.TID 0000.0001) HO                = /* nominal thickness of new ice */
(PID.TID 0000.0001)                 2.000000000000000E-01
(PID.TID 0000.0001)     ;
(PID.TID 0000.0001) HO_south               = /* Southern Ocean HO */
(PID.TID 0000.0001)                 2.000000000000000E-01
(PID.TID 0000.0001)     ;
(PID.TID 0000.0001) SEAICE_area_max        = /* set to les than 1. to mimic open leads */
(PID.TID 0000.0001)                 1.000000000000000E+00
(PID.TID 0000.0001)     ;
(PID.TID 0000.0001) SEAICE_salt0   = /* constant sea ice salinity */
(PID.TID 0000.0001)                 4.000000000000000E+00
(PID.TID 0000.0001)     ;
(PID.TID 0000.0001) SEAICE_salinityTracer = /* test SITR varia. salinity */
(PID.TID 0000.0001)                   F
(PID.TID 0000.0001)     ;
(PID.TID 0000.0001) SEAICEuseFlooding = /* turn submerged snow into ice */
(PID.TID 0000.0001)                   T
(PID.TID 0000.0001)     ;
(PID.TID 0000.0001) 
(PID.TID 0000.0001)    Seaice air-sea fluxes configuration,   > START <
(PID.TID 0000.0001)    -----------------------------------------------
(PID.TID 0000.0001) SEAICEheatConsFix  = /* accound for ocn<->seaice advect. heat flux */
(PID.TID 0000.0001)                   F
(PID.TID 0000.0001)     ;
(PID.TID 0000.0001) SEAICE_multDim    = /* number of ice categories (1 or 7) */
(PID.TID 0000.0001)                       1
(PID.TID 0000.0001)     ;
(PID.TID 0000.0001) SEAICE_PDF        = /* sea-ice distribution (-) */
(PID.TID 0000.0001)                 1.000000000000000E+00       /* K =  1 */
(PID.TID 0000.0001)     ;
(PID.TID 0000.0001) IMAX_TICE         = /* iterations for ice surface temp */
(PID.TID 0000.0001)                      10
(PID.TID 0000.0001)     ;
(PID.TID 0000.0001) postSolvTempIter= /* flux calculation after surf. temp iter */
(PID.TID 0000.0001)                       2
(PID.TID 0000.0001)     ;
(PID.TID 0000.0001) SEAICE_dryIceAlb  = /* winter albedo */
(PID.TID 0000.0001)                 6.000000000000000E-01
(PID.TID 0000.0001)     ;
(PID.TID 0000.0001) SEAICE_wetIceAlb  = /* summer albedo */
(PID.TID 0000.0001)                 6.000000000000000E-01
(PID.TID 0000.0001)     ;
(PID.TID 0000.0001) SEAICE_drySnowAlb = /* dry snow albedo */
(PID.TID 0000.0001)                 6.000000000000000E-01
(PID.TID 0000.0001)     ;
(PID.TID 0000.0001) SEAICE_wetSnowAlb = /* wet snow albedo */
(PID.TID 0000.0001)                 6.000000000000000E-01
(PID.TID 0000.0001)     ;
(PID.TID 0000.0001) SEAICE_dryIceAlb_south = /* Southern Ocean dryIceAlb */
(PID.TID 0000.0001)                 6.000000000000000E-01
(PID.TID 0000.0001)     ;
(PID.TID 0000.0001) SEAICE_wetIceAlb_south = /* Southern Ocean wetIceAlb */
(PID.TID 0000.0001)                 6.000000000000000E-01
(PID.TID 0000.0001)     ;
(PID.TID 0000.0001) SEAICE_drySnowAlb_south= /* Southern Ocean drySnowAlb */
(PID.TID 0000.0001)                 6.000000000000000E-01
(PID.TID 0000.0001)     ;
(PID.TID 0000.0001) SEAICE_wetSnowAlb_south= /* Southern Ocean wetSnowAlb */
(PID.TID 0000.0001)                 6.000000000000000E-01
(PID.TID 0000.0001)     ;
(PID.TID 0000.0001) SEAICE_wetAlbTemp= /* Temp (o.C) threshold for wet-albedo */
(PID.TID 0000.0001)                -1.000000000000000E-03
(PID.TID 0000.0001)     ;
(PID.TID 0000.0001) SEAICE_snow_emiss = /* snow emissivity */
(PID.TID 0000.0001)                 9.500000000000000E-01
(PID.TID 0000.0001)     ;
(PID.TID 0000.0001) SEAICE_ice_emiss = /* seaice emissivity */
(PID.TID 0000.0001)                 9.500000000000000E-01
(PID.TID 0000.0001)     ;
(PID.TID 0000.0001) SEAICE_cpAir      = /* heat capacity of air */
(PID.TID 0000.0001)                 1.005000000000000E+03
(PID.TID 0000.0001)     ;
(PID.TID 0000.0001) SEAICE_dalton     = /* constant dalton number */
(PID.TID 0000.0001)                 1.750000000000000E-03
(PID.TID 0000.0001)     ;
(PID.TID 0000.0001) SEAICE_iceConduct = /* sea-ice conductivity */
(PID.TID 0000.0001)                 2.165600000000000E+00
(PID.TID 0000.0001)     ;
(PID.TID 0000.0001) SEAICE_snowConduct= /* snow conductivity */
(PID.TID 0000.0001)                 3.100000000000000E-01
(PID.TID 0000.0001)     ;
(PID.TID 0000.0001) SEAICE_snowThick  = /* cutoff snow thickness (for albedo) */
(PID.TID 0000.0001)                 1.500000000000000E-01
(PID.TID 0000.0001)     ;
(PID.TID 0000.0001) SEAICE_shortwave  = /* penetration shortwave radiation */
(PID.TID 0000.0001)                 3.000000000000000E-01
(PID.TID 0000.0001)     ;
(PID.TID 0000.0001) useMaykutSatVapPoly = /* use Maykut Polynomial for Sat.Vap.Pr */
(PID.TID 0000.0001)                   F
(PID.TID 0000.0001)     ;
(PID.TID 0000.0001) MIN_ATEMP         = /* minimum air temperature */
(PID.TID 0000.0001)                -5.000000000000000E+01
(PID.TID 0000.0001)     ;
(PID.TID 0000.0001) MIN_LWDOWN        = /* minimum downward longwave */
(PID.TID 0000.0001)                 6.000000000000000E+01
(PID.TID 0000.0001)     ;
(PID.TID 0000.0001) MIN_TICE          = /* minimum ice temperature */
(PID.TID 0000.0001)                -5.000000000000000E+01
(PID.TID 0000.0001)     ;
(PID.TID 0000.0001) 
(PID.TID 0000.0001)    Seaice initialization and IO config.,   > START <
(PID.TID 0000.0001)    -------------------------------------------------
(PID.TID 0000.0001) SEAICE_initialHEFF= /* initial sea-ice thickness */
(PID.TID 0000.0001)                 0.000000000000000E+00
(PID.TID 0000.0001)     ;
(PID.TID 0000.0001) AreaFile = /* Initial ice concentration File */
(PID.TID 0000.0001)               'ice0_area.bin'
(PID.TID 0000.0001)     ;
(PID.TID 0000.0001) HeffFile = /* Initial effective ice thickness File */
(PID.TID 0000.0001)               'ice0_heff.bin'
(PID.TID 0000.0001)     ;
(PID.TID 0000.0001) HsnowFile = /* Initial snow thickness File */
(PID.TID 0000.0001)               'const_00.bin'
(PID.TID 0000.0001)     ;
(PID.TID 0000.0001) uIceFile = /* Initial U-ice velocity File */
(PID.TID 0000.0001)               ''
(PID.TID 0000.0001)     ;
(PID.TID 0000.0001) vIceFile = /* Initial V-ice velocity File */
(PID.TID 0000.0001)               ''
(PID.TID 0000.0001)     ;
(PID.TID 0000.0001) SEAICEwriteState  = /* write sea ice state to file */
(PID.TID 0000.0001)                   T
(PID.TID 0000.0001)     ;
(PID.TID 0000.0001) SEAICE_monFreq  = /* monitor frequency */
(PID.TID 0000.0001)                 4.320000000000000E+04
(PID.TID 0000.0001)     ;
(PID.TID 0000.0001) SEAICE_dumpFreq   = /* dump frequency */
(PID.TID 0000.0001)                 0.000000000000000E+00
(PID.TID 0000.0001)     ;
(PID.TID 0000.0001) SEAICE_taveFreq   = /* time-averaging frequency */
(PID.TID 0000.0001)                 0.000000000000000E+00
(PID.TID 0000.0001)     ;
(PID.TID 0000.0001) SEAICE_mon_stdio  = /* write monitor to std-outp */
(PID.TID 0000.0001)                   T
(PID.TID 0000.0001)     ;
(PID.TID 0000.0001) SEAICE_dump_mdsio = /* write snap-shot   using MDSIO */
(PID.TID 0000.0001)                   T
(PID.TID 0000.0001)     ;
(PID.TID 0000.0001) SEAICE_tave_mdsio = /* write TimeAverage using MDSIO */
(PID.TID 0000.0001)                   T
(PID.TID 0000.0001)     ;
(PID.TID 0000.0001) 
(PID.TID 0000.0001)    Seaice regularization numbers,   > START <
(PID.TID 0000.0001)    -----------------------------------------------
(PID.TID 0000.0001) SEAICE_deltaMin   = /* reduce singularities in Delta */
(PID.TID 0000.0001)                 1.000000000000000E-10
(PID.TID 0000.0001)     ;
(PID.TID 0000.0001) SEAICE_EPS        = /* small number */
(PID.TID 0000.0001)                 1.000000000000000E-10
(PID.TID 0000.0001)     ;
(PID.TID 0000.0001) SEAICE_EPS_SQ     = /* small number squared */
(PID.TID 0000.0001)                 1.000000000000000E-20
(PID.TID 0000.0001)     ;
(PID.TID 0000.0001) SEAICE_area_reg   = /* reduce derivative singularities */
(PID.TID 0000.0001)                 1.000000000000000E-05
(PID.TID 0000.0001)     ;
(PID.TID 0000.0001) SEAICE_hice_reg   = /* reduce derivative singularities */
(PID.TID 0000.0001)                 5.000000000000000E-02
(PID.TID 0000.0001)     ;
(PID.TID 0000.0001) SEAICE_area_floor = /* reduce derivative singularities */
(PID.TID 0000.0001)                 1.000000000000000E-05
(PID.TID 0000.0001)     ;
(PID.TID 0000.0001) 
(PID.TID 0000.0001) // =======================================================
(PID.TID 0000.0001) // Seaice configuration (SEAICE_PARM01) >>> END <<<
(PID.TID 0000.0001) // =======================================================
(PID.TID 0000.0001) 
(PID.TID 0000.0001) ctrl-wet 1:    nvarlength =         9840
(PID.TID 0000.0001) ctrl-wet 2: surface wet C =          800
(PID.TID 0000.0001) ctrl-wet 3: surface wet W =          800
(PID.TID 0000.0001) ctrl-wet 4: surface wet S =          760
(PID.TID 0000.0001) ctrl-wet 4a:surface wet V =            0
(PID.TID 0000.0001) ctrl-wet 5: 3D wet points =          800
(PID.TID 0000.0001) ctrl-wet 6: no recs for i =     1           0
(PID.TID 0000.0001) ctrl-wet 6: no recs for i =     2           0
(PID.TID 0000.0001) ctrl-wet 6: no recs for i =     3           0
(PID.TID 0000.0001) ctrl-wet 6: no recs for i =     4           0
(PID.TID 0000.0001) ctrl-wet 6: no recs for i =     5           0
(PID.TID 0000.0001) ctrl-wet 6: no recs for i =     6           0
(PID.TID 0000.0001) ctrl-wet 6: no recs for i =     7           0
(PID.TID 0000.0001) ctrl-wet 6: no recs for i =     8           0
(PID.TID 0000.0001) ctrl-wet 6: no recs for i =     9           0
(PID.TID 0000.0001) ctrl-wet 6: no recs for i =    10           0
(PID.TID 0000.0001) ctrl-wet 6: no recs for i =    11           0
[...]
 ph-ice B          100  -1.5623279117121187       0.96301532179857285       0.18398673330900969     
 ph-ice C          100   2785332012.2466865     
 ph-ice B          101  -1.5621185746913886       0.96254317371156983       0.18377558244318928     
 ph-ice C          101   2810035651.3137860     
 ph-ice B          102  -1.5619113220483265       0.96207048843666576       0.18356404495044507     
 ph-ice C          102   2834679277.5442042     
 ph-ice B          103  -1.5617060941522656       0.96159728164540026       0.18335212806865320     
 ph-ice C          103   2859262812.9402986     
 ph-ice B          104  -1.5615028330794767       0.96112356847920288       0.18313983882756157     
 ph-ice C          104   2883786180.2990174     
 ph-ice B          105  -1.5613014825637834       0.96064936356441233       0.18292718405480071     
 ph-ice C          105   2908249303.1832862     
 ph-ice B          106  -1.5611019879486063       0.96017468102686165       0.18271417038172086     
 ph-ice C          106   2932652105.8940597     
 ph-ice B          107  -1.5609042961403909       0.95969953450604117       0.18250080424906043     
 ph-ice C          107   2956994513.4428706     
 ph-ice B          108  -1.5607083555633823       0.95922393716885124       0.18228709191245024     
 ph-ice C          108   2981276451.5249963     
 ph-ice B          109  -1.5605141161157075       0.95874790172295765       0.18207303944775896     
 ph-ice C          109   3005497846.4931512     
 ph-ice B          110  -1.5603215291267247       0.95827144042976076       0.18185865275628374     
 ph-ice C          110   3029658625.3316388     
 ph-ice B          111  -1.5601305473156073       0.95779456511698902       0.18164393756979080     
 ph-ice C          111   3053758715.6310134     
 ph-ice B          112  -1.5599411247511232       0.95731728719092868       0.18142889945541019     
 ph-ice C          112   3077798045.5631518     
 ph-ice B          113  -1.5597532168125774       0.95683961764829983       0.18121354382038909     
 ph-ice C          113   3101776543.8568120     
 ph-ice B          114  -1.5595667801518818       0.95636156708778863       0.18099787591670763     
 ph-ice C          114   3125694139.7734780     
 ph-ice B          115  -1.5593817726567225       0.95588314572124666       0.18078190084556109     
 ph-ice C          115   3149550763.0836778     
 ph-ice B          116  -1.5591981534147912       0.95540436338456602       0.18056562356171260     
 ph-ice C          116   3173346344.0436025     
 ph-ice B          117  -1.5590158826790490       0.95492522954824033       0.18034904887771994     
 ph-ice C          117   3197080813.3719869     
 ph-ice B          118  -1.5588349218339956       0.95444575332762016       0.18013218146803991     
 ph-ice C          118   3220754102.2273612     
 ph-ice B          119  -1.5586552333629129       0.95396594349287189       0.17991502587301419     
 ph-ice C          119   3244366142.1855283     
(PID.TID 0000.0001) Did not write pickup because writePickupAtEnd = FALSE
 --> f_ice     = 0.146159773467780D+11
 --> f_smrarea = 0.000000000000000D+00
 --> f_smrarea = 0.000000000000000D+00
 --> f_smrarea = 0.000000000000000D+00
(PID.TID 0000.0001)   early fc =  0.000000000000000D+00
(PID.TID 0000.0001)   local fc =  0.146159773467780D-04
(PID.TID 0000.0001)  global fc =  0.146159773467780D-04
(PID.TID 0000.0001) grdchk perturb(-)fc: fcpertminus =  1.46159773467780E-05
grad-res -------------------------------
 grad-res     0    4    4    1    1    2    2    1   1.46159765738E-05  1.46159758009E-05  1.46159773468E-05
 grad-res     0    4    4    4    0    2    2    1  -7.72950731198E-11 -7.72950718933E-11  1.58678122864E-08
(PID.TID 0000.0001)  ADM  ref_cost_function      =  1.46159765738472E-05
(PID.TID 0000.0001)  ADM  adjoint_gradient       = -7.72950731198208E-11
(PID.TID 0000.0001)  ADM  finite-diff_grad       = -7.72950718933170E-11
(PID.TID 0000.0001) ====== End of gradient-check number   4 (ierr=  0) =======
(PID.TID 0000.0001) 
(PID.TID 0000.0001) // =======================================================
(PID.TID 0000.0001) // Gradient check results  >>> START <<<
(PID.TID 0000.0001) // =======================================================
(PID.TID 0000.0001) 
(PID.TID 0000.0001)  EPS =   1.000000E-02
(PID.TID 0000.0001) 
(PID.TID 0000.0001) grdchk output h.p:  Id Itile Jtile LAYER   bi   bj   X(Id)           X(Id)+/-EPS
(PID.TID 0000.0001) grdchk output h.c:  Id  FC                   FC1                  FC2
(PID.TID 0000.0001) grdchk output h.g:  Id     FC1-FC2/(2*EPS)      ADJ GRAD(FC)         1-FDGRD/ADGRD
(PID.TID 0000.0001) 
(PID.TID 0000.0001) grdchk output (p):   1     1     1     1    2    2   0.000000000E+00 -1.000000000E-02
(PID.TID 0000.0001) grdchk output (c):   1  1.4615976573847E-05  1.4615975794794E-05  1.4615977352856E-05
(PID.TID 0000.0001) grdchk output (g):   1    -7.7903111445185E-11 -7.7903114514832E-11  3.9403397655846E-08
(PID.TID 0000.0001) 
(PID.TID 0000.0001) grdchk output (p):   2     2     1     1    2    2   0.000000000E+00 -1.000000000E-02
(PID.TID 0000.0001) grdchk output (c):   2  1.4615976573847E-05  1.4615975796940E-05  1.4615977350711E-05
(PID.TID 0000.0001) grdchk output (g):   2    -7.7688527421756E-11 -7.7688529220854E-11  2.3157832873544E-08
(PID.TID 0000.0001) 
(PID.TID 0000.0001) grdchk output (p):   3     3     1     1    2    2   0.000000000E+00 -1.000000000E-02
(PID.TID 0000.0001) grdchk output (c):   3  1.4615976573847E-05  1.4615975798969E-05  1.4615977348684E-05
(PID.TID 0000.0001) grdchk output (g):   3    -7.7485738840337E-11 -7.7485740046512E-11  1.5566411493140E-08
(PID.TID 0000.0001) 
(PID.TID 0000.0001) grdchk output (p):   4     4     1     1    2    2   0.000000000E+00 -1.000000000E-02
(PID.TID 0000.0001) grdchk output (c):   4  1.4615976573847E-05  1.4615975800877E-05  1.4615977346778E-05
(PID.TID 0000.0001) grdchk output (g):   4    -7.7295071893317E-11 -7.7295073119821E-11  1.5867812286352E-08
(PID.TID 0000.0001) 
(PID.TID 0000.0001) grdchk  summary  :  RMS of    4 ratios =  2.5411678436067E-08
(PID.TID 0000.0001) 
(PID.TID 0000.0001) // =======================================================
(PID.TID 0000.0001) // Gradient check results  >>> END <<<
(PID.TID 0000.0001) // =======================================================
(PID.TID 0000.0001) 
(PID.TID 0000.0001)   Seconds in section "ALL                    [THE_MODEL_MAIN]":
(PID.TID 0000.0001)           User time:   59.115501403808594
(PID.TID 0000.0001)         System time:   1.8596479895059019
(PID.TID 0000.0001)     Wall clock time:   66.256040811538696
(PID.TID 0000.0001)          No. starts:           1
(PID.TID 0000.0001)           No. stops:           1
(PID.TID 0000.0001)   Seconds in section "INITIALISE_FIXED       [THE_MODEL_MAIN]":
(PID.TID 0000.0001)           User time:   4.7198999673128128E-002
(PID.TID 0000.0001)         System time:   8.3803997142240405E-002
(PID.TID 0000.0001)     Wall clock time:  0.52092981338500977
(PID.TID 0000.0001)          No. starts:           1
(PID.TID 0000.0001)           No. stops:           1
(PID.TID 0000.0001)   Seconds in section "ADTHE_MAIN_LOOP          [ADJOINT RUN]":
(PID.TID 0000.0001)           User time:   26.255491949617863
(PID.TID 0000.0001)         System time:   1.6066819876432419
(PID.TID 0000.0001)     Wall clock time:   32.705721855163574
(PID.TID 0000.0001)          No. starts:           1
(PID.TID 0000.0001)           No. stops:           1
(PID.TID 0000.0001)   Seconds in section "FORWARD_STEP        [MAIN_DO_LOOP]":
(PID.TID 0000.0001)           User time:   41.350089766085148
(PID.TID 0000.0001)         System time:  0.28554572165012360
(PID.TID 0000.0001)     Wall clock time:   42.500232696533203
(PID.TID 0000.0001)          No. starts:        1200
(PID.TID 0000.0001)           No. stops:        1200
(PID.TID 0000.0001)   Seconds in section "DO_STATEVARS_DIAGS  [FORWARD_STEP]":
(PID.TID 0000.0001)           User time:  0.14653322100639343
(PID.TID 0000.0001)         System time:   1.2816041707992554E-002
(PID.TID 0000.0001)     Wall clock time:  0.16010785102844238
(PID.TID 0000.0001)          No. starts:         360
(PID.TID 0000.0001)           No. stops:         360
(PID.TID 0000.0001)   Seconds in section "LOAD_FIELDS_DRIVER  [FORWARD_STEP]":
(PID.TID 0000.0001)           User time:   8.1258381679654121
(PID.TID 0000.0001)         System time:  0.10678106546401978
(PID.TID 0000.0001)     Wall clock time:   8.2424051761627197
(PID.TID 0000.0001)          No. starts:        1200
(PID.TID 0000.0001)           No. stops:        1200
(PID.TID 0000.0001)   Seconds in section "EXF_GETFORCING     [LOAD_FLDS_DRIVER]":
(PID.TID 0000.0001)           User time:   7.4137694016098976
(PID.TID 0000.0001)         System time:   9.1255590319633484E-002
(PID.TID 0000.0001)     Wall clock time:   7.5163779258728027
(PID.TID 0000.0001)          No. starts:        1200
(PID.TID 0000.0001)           No. stops:        1200
(PID.TID 0000.0001)   Seconds in section "EXTERNAL_FLDS_LOAD [LOAD_FLDS_DRIVER]":
(PID.TID 0000.0001)           User time:   1.0711029171943665E-002
(PID.TID 0000.0001)         System time:   8.3923339843750000E-005
(PID.TID 0000.0001)     Wall clock time:   1.0724067687988281E-002
(PID.TID 0000.0001)          No. starts:        1200
(PID.TID 0000.0001)           No. stops:        1200
(PID.TID 0000.0001)   Seconds in section "CTRL_MAP_FORCING  [FORWARD_STEP]":
(PID.TID 0000.0001)           User time:   2.2692697718739510
(PID.TID 0000.0001)         System time:   1.1686861515045166E-002
(PID.TID 0000.0001)     Wall clock time:   2.2825703620910645
(PID.TID 0000.0001)          No. starts:        1200
(PID.TID 0000.0001)           No. stops:        1200
(PID.TID 0000.0001)   Seconds in section "DO_ATMOSPHERIC_PHYS [FORWARD_STEP]":
(PID.TID 0000.0001)           User time:   5.5561445653438568E-002
(PID.TID 0000.0001)         System time:   5.7695806026458740E-004
(PID.TID 0000.0001)     Wall clock time:   5.6172370910644531E-002
(PID.TID 0000.0001)          No. starts:        1200
(PID.TID 0000.0001)           No. stops:        1200
(PID.TID 0000.0001)   Seconds in section "DO_OCEANIC_PHYS     [FORWARD_STEP]":
(PID.TID 0000.0001)           User time:   26.419097185134888
(PID.TID 0000.0001)         System time:   7.1474716067314148E-002
(PID.TID 0000.0001)     Wall clock time:   26.503159523010254
(PID.TID 0000.0001)          No. starts:        1200
(PID.TID 0000.0001)           No. stops:        1200
(PID.TID 0000.0001)   Seconds in section "SEAICE_MODEL    [DO_OCEANIC_PHYS]":
(PID.TID 0000.0001)           User time:   24.729455478489399
(PID.TID 0000.0001)         System time:   6.8871483206748962E-002
(PID.TID 0000.0001)     Wall clock time:   24.810684919357300
(PID.TID 0000.0001)          No. starts:        1200
(PID.TID 0000.0001)           No. stops:        1200
(PID.TID 0000.0001)   Seconds in section "SEAICE_DYNSOLVER   [SEAICE_MODEL]":
(PID.TID 0000.0001)           User time:   5.0207906812429428
(PID.TID 0000.0001)         System time:   2.6249632239341736E-002
(PID.TID 0000.0001)     Wall clock time:   5.0479981899261475
(PID.TID 0000.0001)          No. starts:        1200
(PID.TID 0000.0001)           No. stops:        1200
(PID.TID 0000.0001)   Seconds in section "DYNAMICS            [FORWARD_STEP]":
(PID.TID 0000.0001)           User time:   1.0157489180564880
(PID.TID 0000.0001)         System time:   1.7836987972259521E-003
(PID.TID 0000.0001)     Wall clock time:   1.0181689262390137
(PID.TID 0000.0001)          No. starts:        1200
(PID.TID 0000.0001)           No. stops:        1200
(PID.TID 0000.0001)   Seconds in section "MOM_CORRECTION_STEP [FORWARD_STEP]":
(PID.TID 0000.0001)           User time:   1.3647079467773438E-002
(PID.TID 0000.0001)         System time:   1.2293457984924316E-004
(PID.TID 0000.0001)     Wall clock time:   1.3875722885131836E-002
(PID.TID 0000.0001)          No. starts:        1200
(PID.TID 0000.0001)           No. stops:        1200
(PID.TID 0000.0001)   Seconds in section "BLOCKING_EXCHANGES  [FORWARD_STEP]":
(PID.TID 0000.0001)           User time:  0.30797785520553589
(PID.TID 0000.0001)         System time:   1.6649812459945679E-003
(PID.TID 0000.0001)     Wall clock time:  0.31014013290405273
(PID.TID 0000.0001)          No. starts:        2400
(PID.TID 0000.0001)           No. stops:        2400
(PID.TID 0000.0001)   Seconds in section "THERMODYNAMICS      [FORWARD_STEP]":
(PID.TID 0000.0001)           User time:   2.6628693491220474
(PID.TID 0000.0001)         System time:   1.1232689023017883E-002
(PID.TID 0000.0001)     Wall clock time:   2.6758031845092773
(PID.TID 0000.0001)          No. starts:        1200
(PID.TID 0000.0001)           No. stops:        1200
(PID.TID 0000.0001)   Seconds in section "TRC_CORRECTION_STEP [FORWARD_STEP]":
(PID.TID 0000.0001)           User time:   1.0678201913833618E-002
(PID.TID 0000.0001)         System time:   6.0036778450012207E-005
(PID.TID 0000.0001)     Wall clock time:   1.0760784149169922E-002
(PID.TID 0000.0001)          No. starts:        1200
(PID.TID 0000.0001)           No. stops:        1200
(PID.TID 0000.0001)   Seconds in section "MONITOR             [FORWARD_STEP]":
(PID.TID 0000.0001)           User time:   2.1822348237037659E-002
(PID.TID 0000.0001)         System time:   5.8010220527648926E-005
(PID.TID 0000.0001)     Wall clock time:   2.1918535232543945E-002
(PID.TID 0000.0001)          No. starts:        1200
(PID.TID 0000.0001)           No. stops:        1200
(PID.TID 0000.0001)   Seconds in section "COST_TILE           [FORWARD_STEP]":
(PID.TID 0000.0001)           User time:   1.0385900735855103E-002
(PID.TID 0000.0001)         System time:   5.7801604270935059E-005
(PID.TID 0000.0001)     Wall clock time:   1.0426759719848633E-002
(PID.TID 0000.0001)          No. starts:        1200
(PID.TID 0000.0001)           No. stops:        1200
(PID.TID 0000.0001)   Seconds in section "DO_THE_MODEL_IO     [FORWARD_STEP]":
(PID.TID 0000.0001)           User time:  0.10971933603286743
(PID.TID 0000.0001)         System time:   6.5745428204536438E-002
(PID.TID 0000.0001)     Wall clock time:  0.99255537986755371
(PID.TID 0000.0001)          No. starts:        1200
(PID.TID 0000.0001)           No. stops:        1200
(PID.TID 0000.0001)   Seconds in section "DO_WRITE_PICKUP     [FORWARD_STEP]":
(PID.TID 0000.0001)           User time:   2.0579800009727478E-002
(PID.TID 0000.0001)         System time:   3.7549436092376709E-004
(PID.TID 0000.0001)     Wall clock time:   4.5111417770385742E-002
(PID.TID 0000.0001)          No. starts:        1200
(PID.TID 0000.0001)           No. stops:        1200
(PID.TID 0000.0001)   Seconds in section "GRDCHK_MAIN         [THE_MODEL_MAIN]":
(PID.TID 0000.0001)           User time:   32.812776565551758
(PID.TID 0000.0001)         System time:  0.16885304450988770
(PID.TID 0000.0001)     Wall clock time:   33.029314994812012
(PID.TID 0000.0001)          No. starts:           1
(PID.TID 0000.0001)           No. stops:           1
(PID.TID 0000.0001)   Seconds in section "INITIALISE_VARIA    [THE_MAIN_LOOP]":
(PID.TID 0000.0001)           User time:  0.11744689941406250
(PID.TID 0000.0001)         System time:   1.4241933822631836E-002
(PID.TID 0000.0001)     Wall clock time:  0.13172006607055664
(PID.TID 0000.0001)          No. starts:           8
(PID.TID 0000.0001)           No. stops:           8
(PID.TID 0000.0001)   Seconds in section "MAIN LOOP           [THE_MAIN_LOOP]":
(PID.TID 0000.0001)           User time:   32.677379608154297
(PID.TID 0000.0001)         System time:  0.15300297737121582
(PID.TID 0000.0001)     Wall clock time:   32.845699310302734
(PID.TID 0000.0001)          No. starts:           8
(PID.TID 0000.0001)           No. stops:           8
(PID.TID 0000.0001)   Seconds in section "MAIN_DO_LOOP        [THE_MAIN_LOOP]":
(PID.TID 0000.0001)           User time:   32.663080215454102
(PID.TID 0000.0001)         System time:  0.15291666984558105
(PID.TID 0000.0001)     Wall clock time:   32.831274509429932
(PID.TID 0000.0001)          No. starts:         960
(PID.TID 0000.0001)           No. stops:         960
(PID.TID 0000.0001)   Seconds in section "COST_FINAL         [ADJOINT SPIN-DOWN]":
(PID.TID 0000.0001)           User time:   1.6002655029296875E-003
(PID.TID 0000.0001)         System time:   0.0000000000000000
(PID.TID 0000.0001)     Wall clock time:   1.6150474548339844E-003
(PID.TID 0000.0001)          No. starts:           8
(PID.TID 0000.0001)           No. stops:           8
(PID.TID 0000.0001) // ======================================================
(PID.TID 0000.0001) // Tile <-> Tile communication statistics
(PID.TID 0000.0001) // ======================================================
(PID.TID 0000.0001) // o Tile number: 000001
(PID.TID 0000.0001) //         No. X exchanges =              0
(PID.TID 0000.0001) //            Max. X spins =              0
(PID.TID 0000.0001) //            Min. X spins =     1000000000
(PID.TID 0000.0001) //          Total. X spins =              0
(PID.TID 0000.0001) //            Avg. X spins =       0.00E+00
(PID.TID 0000.0001) //         No. Y exchanges =              0
(PID.TID 0000.0001) //            Max. Y spins =              0
(PID.TID 0000.0001) //            Min. Y spins =     1000000000
(PID.TID 0000.0001) //          Total. Y spins =              0
(PID.TID 0000.0001) //            Avg. Y spins =       0.00E+00
(PID.TID 0000.0001) // o Tile number: 000002
(PID.TID 0000.0001) //         No. X exchanges =              0
(PID.TID 0000.0001) //            Max. X spins =              0
(PID.TID 0000.0001) //            Min. X spins =     1000000000
(PID.TID 0000.0001) //          Total. X spins =              0
(PID.TID 0000.0001) //            Avg. X spins =       0.00E+00
(PID.TID 0000.0001) //         No. Y exchanges =              0
(PID.TID 0000.0001) //            Max. Y spins =              0
(PID.TID 0000.0001) //            Min. Y spins =     1000000000
(PID.TID 0000.0001) //          Total. Y spins =              0
(PID.TID 0000.0001) //            Avg. Y spins =       0.00E+00
(PID.TID 0000.0001) // o Tile number: 000003
(PID.TID 0000.0001) //         No. X exchanges =              0
(PID.TID 0000.0001) //            Max. X spins =              0
(PID.TID 0000.0001) //            Min. X spins =     1000000000
(PID.TID 0000.0001) //          Total. X spins =              0
(PID.TID 0000.0001) //            Avg. X spins =       0.00E+00
(PID.TID 0000.0001) //         No. Y exchanges =              0
(PID.TID 0000.0001) //            Max. Y spins =              0
(PID.TID 0000.0001) //            Min. Y spins =     1000000000
(PID.TID 0000.0001) //          Total. Y spins =              0
(PID.TID 0000.0001) //            Avg. Y spins =       0.00E+00
(PID.TID 0000.0001) // o Tile number: 000004
(PID.TID 0000.0001) //         No. X exchanges =              0
(PID.TID 0000.0001) //            Max. X spins =              0
(PID.TID 0000.0001) //            Min. X spins =     1000000000
(PID.TID 0000.0001) //          Total. X spins =              0
(PID.TID 0000.0001) //            Avg. X spins =       0.00E+00
(PID.TID 0000.0001) //         No. Y exchanges =              0
(PID.TID 0000.0001) //            Max. Y spins =              0
(PID.TID 0000.0001) //            Min. Y spins =     1000000000
(PID.TID 0000.0001) //          Total. Y spins =              0
(PID.TID 0000.0001) //            Avg. Y spins =       0.00E+00
(PID.TID 0000.0001) // o Thread number: 000001
(PID.TID 0000.0001) //            No. barriers =           5302
(PID.TID 0000.0001) //      Max. barrier spins =              1
(PID.TID 0000.0001) //      Min. barrier spins =              1
(PID.TID 0000.0001) //     Total barrier spins =           5302
(PID.TID 0000.0001) //      Avg. barrier spins =       1.00E+00
PROGRAM MAIN: Execution ended Normally
