(PID.TID 0000.0001) 
(PID.TID 0000.0001) // ======================================================
(PID.TID 0000.0001) //                      MITgcm UV
(PID.TID 0000.0001) //                      =========
(PID.TID 0000.0001) // ======================================================
(PID.TID 0000.0001) // execution environment starting up...
(PID.TID 0000.0001) 
(PID.TID 0000.0001) // MITgcmUV version:  checkpoint61y
(PID.TID 0000.0001) // Build user:        jmc
(PID.TID 0000.0001) // Build host:        faulks.csail.mit.edu
(PID.TID 0000.0001) // Build date:        Thu Nov 19 17:50:59 EST 2009
(PID.TID 0000.0001) 
(PID.TID 0000.0001) // =======================================================
(PID.TID 0000.0001) // Execution Environment parameter file "eedata"
(PID.TID 0000.0001) // =======================================================
(PID.TID 0000.0001) ># Example "eedata" file
(PID.TID 0000.0001) ># Lines beginning "#" are comments
(PID.TID 0000.0001) ># nTx - No. threads per process in X
(PID.TID 0000.0001) ># nTy - No. threads per process in Y
(PID.TID 0000.0001) > &EEPARMS
(PID.TID 0000.0001) > nTx=1,
(PID.TID 0000.0001) > nTy=1,
(PID.TID 0000.0001) > &
(PID.TID 0000.0001) ># Note: Some systems use & as the
(PID.TID 0000.0001) ># namelist terminator. Other systems
(PID.TID 0000.0001) ># use a / character (as shown here).
(PID.TID 0000.0001) 
(PID.TID 0000.0001) // =======================================================
(PID.TID 0000.0001) // Computational Grid Specification ( see files "SIZE.h" )
(PID.TID 0000.0001) //                                  ( and "eedata"       )
(PID.TID 0000.0001) // =======================================================
(PID.TID 0000.0001)      nPx =    1 ; /* No. processes in X */
(PID.TID 0000.0001)      nPy =    1 ; /* No. processes in Y */
(PID.TID 0000.0001)      nSx =    2 ; /* No. tiles in X per process */
(PID.TID 0000.0001)      nSy =    2 ; /* No. tiles in Y per process */
(PID.TID 0000.0001)      sNx =   10 ; /* Tile size in X */
(PID.TID 0000.0001)      sNy =    8 ; /* Tile size in Y */
(PID.TID 0000.0001)      OLx =    4 ; /* Tile overlap distance in X */
(PID.TID 0000.0001)      OLy =    4 ; /* Tile overlap distance in Y */
(PID.TID 0000.0001)      nTx =    1 ; /* No. threads in X per process */
(PID.TID 0000.0001)      nTy =    1 ; /* No. threads in Y per process */
(PID.TID 0000.0001)       Nr =   23 ; /* No. levels in the vertical   */
(PID.TID 0000.0001)       Nx =   20 ; /* Total domain size in X ( = nPx*nSx*sNx ) */
(PID.TID 0000.0001)       Ny =   16 ; /* Total domain size in Y ( = nPy*nSy*sNy ) */
(PID.TID 0000.0001)   nTiles =    4 ; /* Total no. tiles per process ( = nSx*nSy ) */
(PID.TID 0000.0001)   nProcs =    1 ; /* Total no. processes ( = nPx*nPy ) */
(PID.TID 0000.0001) nThreads =    1 ; /* Total no. threads per process ( = nTx*nTy ) */
(PID.TID 0000.0001) usingMPI =    F ; /* Flag used to control whether MPI is in use */
(PID.TID 0000.0001)                   /*  note: To execute a program with MPI calls */
(PID.TID 0000.0001)                   /*  it must be launched appropriately e.g     */
(PID.TID 0000.0001)                   /*  "mpirun -np 64 ......"                    */
(PID.TID 0000.0001) useCoupler=    F ;/* Flag used to control communications with   */
(PID.TID 0000.0001)                   /*  other model components, through a coupler */
(PID.TID 0000.0001) printMapIncludesZeros=    F ; /* print zeros in Std.Output maps */
(PID.TID 0000.0001) maxLengthPrt1D=   65 /* maxLength of 1D array printed to StdOut */
(PID.TID 0000.0001) 
(PID.TID 0000.0001) // ======================================================
(PID.TID 0000.0001) // Mapping of tiles to threads
(PID.TID 0000.0001) // ======================================================
(PID.TID 0000.0001) // -o- Thread   1, tiles (   1:   2,   1:   2)
(PID.TID 0000.0001) 
(PID.TID 0000.0001) // ======================================================
(PID.TID 0000.0001) // Tile <-> Tile connectvity table
(PID.TID 0000.0001) // ======================================================
(PID.TID 0000.0001) // Tile number: 000001 (process no. = 000001)
(PID.TID 0000.0001) //        WEST: Tile = 000002, Process = 000001, Comm = put
(PID.TID 0000.0001) //                bi = 000002, bj = 000001
(PID.TID 0000.0001) //        EAST: Tile = 000002, Process = 000001, Comm = put
(PID.TID 0000.0001) //                bi = 000002, bj = 000001
(PID.TID 0000.0001) //       SOUTH: Tile = 000003, Process = 000001, Comm = put
(PID.TID 0000.0001) //                bi = 000001, bj = 000002
(PID.TID 0000.0001) //       NORTH: Tile = 000003, Process = 000001, Comm = put
(PID.TID 0000.0001) //                bi = 000001, bj = 000002
(PID.TID 0000.0001) // Tile number: 000002 (process no. = 000001)
(PID.TID 0000.0001) //        WEST: Tile = 000001, Process = 000001, Comm = put
(PID.TID 0000.0001) //                bi = 000001, bj = 000001
(PID.TID 0000.0001) //        EAST: Tile = 000001, Process = 000001, Comm = put
(PID.TID 0000.0001) //                bi = 000001, bj = 000001
(PID.TID 0000.0001) //       SOUTH: Tile = 000004, Process = 000001, Comm = put
(PID.TID 0000.0001) //                bi = 000002, bj = 000002
(PID.TID 0000.0001) //       NORTH: Tile = 000004, Process = 000001, Comm = put
(PID.TID 0000.0001) //                bi = 000002, bj = 000002
(PID.TID 0000.0001) // Tile number: 000003 (process no. = 000001)
(PID.TID 0000.0001) //        WEST: Tile = 000004, Process = 000001, Comm = put
(PID.TID 0000.0001) //                bi = 000002, bj = 000002
(PID.TID 0000.0001) //        EAST: Tile = 000004, Process = 000001, Comm = put
(PID.TID 0000.0001) //                bi = 000002, bj = 000002
(PID.TID 0000.0001) //       SOUTH: Tile = 000001, Process = 000001, Comm = put
(PID.TID 0000.0001) //                bi = 000001, bj = 000001
(PID.TID 0000.0001) //       NORTH: Tile = 000001, Process = 000001, Comm = put
(PID.TID 0000.0001) //                bi = 000001, bj = 000001
(PID.TID 0000.0001) // Tile number: 000004 (process no. = 000001)
(PID.TID 0000.0001) //        WEST: Tile = 000003, Process = 000001, Comm = put
(PID.TID 0000.0001) //                bi = 000001, bj = 000002
(PID.TID 0000.0001) //        EAST: Tile = 000003, Process = 000001, Comm = put
(PID.TID 0000.0001) //                bi = 000001, bj = 000002
(PID.TID 0000.0001) //       SOUTH: Tile = 000002, Process = 000001, Comm = put
(PID.TID 0000.0001) //                bi = 000002, bj = 000001
(PID.TID 0000.0001) //       NORTH: Tile = 000002, Process = 000001, Comm = put
(PID.TID 0000.0001) //                bi = 000002, bj = 000001
(PID.TID 0000.0001) 
(PID.TID 0000.0001) DEBUG_MSG: ENTERED S/R THE_MODEL_MAIN
(PID.TID 0000.0001) DEBUG_MSG: CALLING S/R INITIALISE_FIXED
(PID.TID 0000.0001) // =======================================================
(PID.TID 0000.0001) // Model parameter file "data"
(PID.TID 0000.0001) // =======================================================
(PID.TID 0000.0001) ># ====================
(PID.TID 0000.0001) ># | Model parameters |
(PID.TID 0000.0001) ># ====================
(PID.TID 0000.0001) >#
(PID.TID 0000.0001) ># Continuous equation parameters
(PID.TID 0000.0001) >#
(PID.TID 0000.0001) >#   tRef            - Reference vertical potential temperature          (deg C)
(PID.TID 0000.0001) >#   sRef            - Reference vertical salinity                         (PSU)
(PID.TID 0000.0001) >#   viscAh          - Horizontal eddy viscosity coefficient             (m^2/s)
(PID.TID 0000.0001) >#   viscAz          - Vertical eddy viscosity coefficient               (m^2/s)
(PID.TID 0000.0001) >#   diffKhT         - Horizontal temperature diffusivity                (m^2/s)
(PID.TID 0000.0001) >#   diffKzT         - Vertical temperature diffusivity                  (m^2/s)
(PID.TID 0000.0001) >#   diffKhS         - Horizontal salt diffusivity                       (m^2/s)
(PID.TID 0000.0001) >#   diffKzS         - Vertical salt diffusivity                         (m^2/s)
(PID.TID 0000.0001) >#   tAlpha          - Linear EOS thermal expansion coefficient           (1/oC)
(PID.TID 0000.0001) >#   sBeta           - Linear EOS haline contraction coefficient         (1/ppt)
(PID.TID 0000.0001) >#   gravity         - Acceleration due to gravity                       (m/s^2)
(PID.TID 0000.0001) >#   rigidLid        - Set to true to use rigid lid
(PID.TID 0000.0001) >#   implicitFreeSurface - Set to true to use implicit free surface
(PID.TID 0000.0001) >#   eosType         - Flag for linear or polynomial equation of state
(PID.TID 0000.0001) >#   GMkbackground   - background value of GM/Redi coefficient
(PID.TID 0000.0001) >#   momAdvection    - On/Off flag for momentum self transport
(PID.TID 0000.0001) >#   momViscosity    - On/Off flag for momentum mixing
(PID.TID 0000.0001) >#
(PID.TID 0000.0001) > &PARM01
(PID.TID 0000.0001) > viscAz             = 1.E-3,
(PID.TID 0000.0001) > diffKzT            = 1.E-5,
(PID.TID 0000.0001) > diffKzS            = 1.E-5,
(PID.TID 0000.0001) > viscAh             = 5.0E4,
(PID.TID 0000.0001) > viscA4             = 5.e12,
(PID.TID 0000.0001) > diffKhT            = 1.0E3,
(PID.TID 0000.0001) > diffKhS            = 1.0E3,
(PID.TID 0000.0001) >#rotationPeriod     = 86400.,
(PID.TID 0000.0001) > tAlpha             = 2.E-4,
(PID.TID 0000.0001) > sBeta              = 7.4E-4,
(PID.TID 0000.0001) > gravity            = 9.81,
(PID.TID 0000.0001) > rigidLid           = .FALSE.,
(PID.TID 0000.0001) > implicitFreeSurface= .TRUE.,
(PID.TID 0000.0001) > implicitDiffusion  = .TRUE.,
(PID.TID 0000.0001) > useCDscheme        = .TRUE.,
(PID.TID 0000.0001) > useNHMTerms        = .TRUE.,
(PID.TID 0000.0001) > eosType            = 'POLY3',
(PID.TID 0000.0001) > momAdvection       = .TRUE.,
(PID.TID 0000.0001) > momViscosity       = .TRUE.,
(PID.TID 0000.0001) > implicitDiffusion  = .TRUE.,
(PID.TID 0000.0001) > implicitViscosity  = .TRUE.,
(PID.TID 0000.0001) > no_slip_bottom     = .TRUE.,
(PID.TID 0000.0001) > no_slip_sides      = .FALSE.,
(PID.TID 0000.0001) > readBinaryPrec     = 32,
(PID.TID 0000.0001) >#- not safe to use globalFiles in multi-processors runs
(PID.TID 0000.0001) >#globalFiles        = .TRUE.
(PID.TID 0000.0001) > &
(PID.TID 0000.0001) >
(PID.TID 0000.0001) ># Elliptic solver parameters
(PID.TID 0000.0001) >#
(PID.TID 0000.0001) >#   cg2dMaxIters       - Maximum number of 2d solver iterations
(PID.TID 0000.0001) >#   cg2dTargetResidual - Solver target residual
(PID.TID 0000.0001) >#
(PID.TID 0000.0001) > &PARM02
(PID.TID 0000.0001) > cg2dMaxIters       = 1000,
(PID.TID 0000.0001) > cg2dTargetResidual = 1.E-13,
(PID.TID 0000.0001) > &
(PID.TID 0000.0001) >
(PID.TID 0000.0001) ># Time stepping parameters
(PID.TID 0000.0001) >#
(PID.TID 0000.0001) >#   startTime         - Integration starting time                (s)
(PID.TID 0000.0001) >#   endTime           - Integration ending time                  (s)
(PID.TID 0000.0001) >#   tauCD             - CD scheme coupling timescale             (s)
(PID.TID 0000.0001) >#   deltaTMom         - Timestep for momemtum equations          (s)
(PID.TID 0000.0001) >#   deltaTtracer      - Tracer timestep                          (s)
(PID.TID 0000.0001) >#   deltaTClock       - Timestep used as model "clock"           (s)
(PID.TID 0000.0001) >#   abEps             - Adams-Bashforth stabilising factor
(PID.TID 0000.0001) >#   pChkPtFreq        - Frequency of permanent check pointing    (s)
(PID.TID 0000.0001) >#   chkPtFreq         - Frequency of rolling check pointing      (s)
(PID.TID 0000.0001) >#   dumpFreq          - Frequency at which model state is stored (s)
(PID.TID 0000.0001) >#   tauThetaClimRelax - Relaxation to climatology time scale     (s)
(PID.TID 0000.0001) >#   tauSaltClimRelax  - Relaxation to climatology time scale     (s)
(PID.TID 0000.0001) >#
(PID.TID 0000.0001) > &PARM03
(PID.TID 0000.0001) > baseTime   = 21600.,
(PID.TID 0000.0001) > startTime  = 21600.,
(PID.TID 0000.0001) > endTime    = 93600.,
(PID.TID 0000.0001) > deltaTmom  = 3600.0,
(PID.TID 0000.0001) > TauCD      = 172800.,
(PID.TID 0000.0001) > cAdjFreq   = 0.,
(PID.TID 0000.0001) > abEps      = 0.1,
(PID.TID 0000.0001) > pChkptFreq = 0.0,
(PID.TID 0000.0001) > chkptFreq  = 0.0,
(PID.TID 0000.0001) > dumpFreq   = 86400.,
(PID.TID 0000.0001) > tauSaltClimRelax = 2592000.0,
(PID.TID 0000.0001) > tauThetaClimRelax = 2592000.0,
(PID.TID 0000.0001) > periodicExternalForcing = .TRUE.,
(PID.TID 0000.0001) > externForcingPeriod = 43200.0,
(PID.TID 0000.0001) > externForcingCycle = 2764800.0,
(PID.TID 0000.0001) > monitorFreq=1.,
(PID.TID 0000.0001) > &
(PID.TID 0000.0001) >
(PID.TID 0000.0001) ># Gridding parameters
(PID.TID 0000.0001) >#
(PID.TID 0000.0001) >#   usingSphericalPolarGrid - On/Off flag for spherical polar coordinates
(PID.TID 0000.0001) >#   delX                    - Zonal grid spacing         (degrees)
(PID.TID 0000.0001) >#   delY                    - Meridional grid spacing    (degrees)
(PID.TID 0000.0001) >#   delZ                    - Vertical grid spacing      (m)
(PID.TID 0000.0001) >#   ygOrigin                - Southern boundary latitude (degrees)
(PID.TID 0000.0001) >#
(PID.TID 0000.0001) > &PARM04
(PID.TID 0000.0001) > usingSphericalPolarGrid = .TRUE.,
(PID.TID 0000.0001) > delX   = 20*2.,
(PID.TID 0000.0001) > delY   = 16*2.,
(PID.TID 0000.0001) > delZ= 10., 10., 15., 20., 20., 25., 35., 50., 75.,
(PID.TID 0000.0001) >       100., 150., 200., 275., 350., 415., 450.,
(PID.TID 0000.0001) >       500., 500., 500., 500., 500., 500., 500.,
(PID.TID 0000.0001) > ygOrigin = 10.,
(PID.TID 0000.0001) > xgOrigin= -42.,
(PID.TID 0000.0001) > &
(PID.TID 0000.0001) >
(PID.TID 0000.0001) ># Input datasets
(PID.TID 0000.0001) >#
(PID.TID 0000.0001) >#   bathyFile       - File containing bathymetry
(PID.TID 0000.0001) >#   hydrogThetaFile - File containing initial potential temperature data
(PID.TID 0000.0001) >#   hydrogSaltFile  - File containing initial salinity data
(PID.TID 0000.0001) >#   zonalWindFile   - File containing zonal wind data
(PID.TID 0000.0001) >#   meridWindFile   - File containing meridional wind data
(PID.TID 0000.0001) >#   thetaClimFile   - File containing theta climatology used for relaxation
(PID.TID 0000.0001) >#   saltClimFile    - File containing salt climatology used for relaxation
(PID.TID 0000.0001) >#
(PID.TID 0000.0001) > &PARM05
(PID.TID 0000.0001) > bathyFile       = 'kf_topog',
(PID.TID 0000.0001) > hydrogThetaFile = 'kf_climtheta',
(PID.TID 0000.0001) > hydrogSaltFile  = 'kf_climsalt',
(PID.TID 0000.0001) > zonalWindFile   = 'kf_tx',
(PID.TID 0000.0001) > meridWindFile   = 'kf_ty',
(PID.TID 0000.0001) > thetaClimFile   = 'kf_sst',
(PID.TID 0000.0001) > saltClimFile    = 'kf_sss',
(PID.TID 0000.0001) > surfQFile       = 'kf_qnet',
(PID.TID 0000.0001) > EmPmRFile       = 'kf_empmr',
(PID.TID 0000.0001) > surfQswFile     = 'kf_sw',
(PID.TID 0000.0001) > &
(PID.TID 0000.0001) 
(PID.TID 0000.0001) S/R INI_PARMS ; starts to read PARM01
(PID.TID 0000.0001) S/R INI_PARMS ; read PARM01 : OK
(PID.TID 0000.0001) S/R INI_PARMS ; starts to read PARM02
(PID.TID 0000.0001) S/R INI_PARMS ; read PARM02 : OK
(PID.TID 0000.0001) S/R INI_PARMS ; starts to read PARM03
(PID.TID 0000.0001) S/R INI_PARMS ; read PARM03 : OK
(PID.TID 0000.0001) S/R INI_PARMS ; starts to read PARM04
(PID.TID 0000.0001) S/R INI_PARMS ; read PARM04 : OK
(PID.TID 0000.0001) S/R INI_PARMS ; starts to read PARM05
(PID.TID 0000.0001) S/R INI_PARMS ; read PARM05 : OK
(PID.TID 0000.0001)  PACKAGES_BOOT: opening data.pkg
(PID.TID 0000.0001)  OPEN_COPY_DATA_FILE: opening file data.pkg
(PID.TID 0000.0001) // =======================================================
(PID.TID 0000.0001) // Parameter file "data.pkg"
(PID.TID 0000.0001) // =======================================================
(PID.TID 0000.0001) ># Packages
(PID.TID 0000.0001) > &PACKAGES
(PID.TID 0000.0001) >  useGMRedi=.FALSE.,
(PID.TID 0000.0001) >  useKPP=.TRUE.,
(PID.TID 0000.0001) >  useECCO=.FALSE.,
(PID.TID 0000.0001) >  usediagnostics=.TRUE.,
(PID.TID 0000.0001) > &
(PID.TID 0000.0001) 
(PID.TID 0000.0001)  PACKAGES_BOOT: finished reading data.pkg
(PID.TID 0000.0001)  KPP_INIT: opening data.kpp
(PID.TID 0000.0001)  OPEN_COPY_DATA_FILE: opening file data.kpp
(PID.TID 0000.0001) // =======================================================
(PID.TID 0000.0001) // Parameter file "data.kpp"
(PID.TID 0000.0001) // =======================================================
(PID.TID 0000.0001) ># KPP parameters
(PID.TID 0000.0001) > &KPP_PARM01
(PID.TID 0000.0001) > KPPmixingMaps   = .FALSE.,
(PID.TID 0000.0001) > KPPwriteState   = .TRUE.,
(PID.TID 0000.0001) > &
(PID.TID 0000.0001) 
(PID.TID 0000.0001)  KPP_INIT: finished reading data.kpp
(PID.TID 0000.0001)  DIAGNOSTICS_READPARMS: opening data.diagnostics
(PID.TID 0000.0001)  OPEN_COPY_DATA_FILE: opening file data.diagnostics
(PID.TID 0000.0001) // =======================================================
(PID.TID 0000.0001) // Parameter file "data.diagnostics"
(PID.TID 0000.0001) // =======================================================
(PID.TID 0000.0001) ># Diagnostic Package Choices
(PID.TID 0000.0001) >#-----------------
(PID.TID 0000.0001) ># for each output-stream:
(PID.TID 0000.0001) >#  filename(n) : prefix of the output file name (only 8.c long) for outp.stream n
(PID.TID 0000.0001) >#  frequency(n):< 0 : write snap-shot output every |frequency| seconds
(PID.TID 0000.0001) >#               > 0 : write time-average output every frequency seconds
(PID.TID 0000.0001) >#  timePhase(n)     : write at time = timePhase + multiple of |frequency|
(PID.TID 0000.0001) >#  levels(:,n) : list of levels to write to file (Notes: declared as REAL)
(PID.TID 0000.0001) >#                 when this entry is missing, select all common levels of this list
(PID.TID 0000.0001) >#  fields(:,n) : list of diagnostics fields (8.c) (see "available_diagnostics" file
(PID.TID 0000.0001) >#                 for the list of all available diag. in this particular config)
(PID.TID 0000.0001) >#-----------------
(PID.TID 0000.0001) ># This example dumps all KPP diagnostics as
(PID.TID 0000.0001) ># a snapshot every day, at mid day (t=12.h, baseTime=6.h, deltaT=1.h => iter=6)
(PID.TID 0000.0001) > &diagnostics_list
(PID.TID 0000.0001) >  frequency(1) = -86400.,
(PID.TID 0000.0001) >   fields(1,1) = 'KPPviscA',
(PID.TID 0000.0001) >   filename(1) = 'KPPviscA',
(PID.TID 0000.0001) >  frequency(2) = -86400.,
(PID.TID 0000.0001) >   fields(1,2) = 'KPPdiffS',
(PID.TID 0000.0001) >   filename(2) = 'KPPdiffS',
(PID.TID 0000.0001) >  frequency(3) = -86400.,
(PID.TID 0000.0001) >   fields(1,3) = 'KPPdiffT',
(PID.TID 0000.0001) >   filename(3) = 'KPPdiffT',
(PID.TID 0000.0001) >  frequency(4) = -86400.,
(PID.TID 0000.0001) >   fields(1,4) = 'KPPghat ',
(PID.TID 0000.0001) >   filename(4) = 'KPP_ghat',
(PID.TID 0000.0001) >  frequency(5) = -86400.,
(PID.TID 0000.0001) >   fields(1,5) = 'KPPhbl  ',
(PID.TID 0000.0001) >   filename(5) = 'KPP_hbl',
(PID.TID 0000.0001) >  frequency(6) = -86400.,
(PID.TID 0000.0001) >   fields(1,6) = 'KPPfrac ',
(PID.TID 0000.0001) >   filename(6) = 'KPPfrac',
(PID.TID 0000.0001) >  frequency(7) = -86400.,
(PID.TID 0000.0001) >   fields(1,7) = 'MXLDEPTH',
(PID.TID 0000.0001) >   filename(7) = 'MXLDEPTH',
(PID.TID 0000.0001) > &
(PID.TID 0000.0001) >
(PID.TID 0000.0001) ># Parameter for Diagnostics of per level statistics:
(PID.TID 0000.0001) >#-----------------
(PID.TID 0000.0001) ># for each output-stream:
(PID.TID 0000.0001) >#  stat_fname(n) : prefix of the output file name (only 8.c long) for outp.stream n
(PID.TID 0000.0001) >#  stat_freq(n):< 0 : write snap-shot output every |stat_freq| seconds
(PID.TID 0000.0001) >#               > 0 : write time-average output every stat_freq seconds
(PID.TID 0000.0001) >#  stat_phase(n)    : write at time = stat_phase + multiple of |stat_freq|
(PID.TID 0000.0001) >#  stat_region(:,n) : list of "regions" (default: 1 region only=global)
(PID.TID 0000.0001) >#  stat_fields(:,n) : list of diagnostics fields (8.c) (see "available_diagnostics.log"
(PID.TID 0000.0001) >#                 file for the list of all available diag. in this particular config)
(PID.TID 0000.0001) >#-----------------
(PID.TID 0000.0001) > &DIAG_STATIS_PARMS
(PID.TID 0000.0001) >#- an example just to check the agreement with MONITOR output:
(PID.TID 0000.0001) >#stat_fields(1,1)= 'ETAN    ','UVEL    ','VVEL    ','WVEL    ', 'THETA   ',
(PID.TID 0000.0001) >#   stat_fname(1)= 'dynStDiag',
(PID.TID 0000.0001) >#    stat_freq(1)= -864000.,
(PID.TID 0000.0001) >#   stat_phase(1)= 0.,
(PID.TID 0000.0001) > &
(PID.TID 0000.0001) >
(PID.TID 0000.0001) 
(PID.TID 0000.0001) S/R DIAGNOSTICS_READPARMS, read namelist "diagnostics_list": start
(PID.TID 0000.0001) S/R DIAGNOSTICS_READPARMS, read namelist "diagnostics_list": OK
(PID.TID 0000.0001) S/R DIAGNOSTICS_READPARMS, read namelist "DIAG_STATIS_PARMS": start
(PID.TID 0000.0001) S/R DIAGNOSTICS_READPARMS, read namelist "DIAG_STATIS_PARMS": OK
(PID.TID 0000.0001) -----------------------------------------------------
(PID.TID 0000.0001)  DIAGNOSTICS_READPARMS: active diagnostics summary:
(PID.TID 0000.0001) -----------------------------------------------------
(PID.TID 0000.0001) Creating Output Stream: KPPviscA
(PID.TID 0000.0001) Output Frequency:     -86400.000000 ; Phase:       43200.000000
(PID.TID 0000.0001)  Averaging Freq.:          0.000000 , Phase:           0.000000 , Cycle:   1
(PID.TID 0000.0001)  missing value:  1.234567000000E+05 ; for integers:   123456789
(PID.TID 0000.0001)  Levels:    will be set later
(PID.TID 0000.0001)  Fields:    KPPviscA
(PID.TID 0000.0001) Creating Output Stream: KPPdiffS
(PID.TID 0000.0001) Output Frequency:     -86400.000000 ; Phase:       43200.000000
(PID.TID 0000.0001)  Averaging Freq.:          0.000000 , Phase:           0.000000 , Cycle:   1
(PID.TID 0000.0001)  missing value:  1.234567000000E+05 ; for integers:   123456789
(PID.TID 0000.0001)  Levels:    will be set later
(PID.TID 0000.0001)  Fields:    KPPdiffS
(PID.TID 0000.0001) Creating Output Stream: KPPdiffT
(PID.TID 0000.0001) Output Frequency:     -86400.000000 ; Phase:       43200.000000
(PID.TID 0000.0001)  Averaging Freq.:          0.000000 , Phase:           0.000000 , Cycle:   1
(PID.TID 0000.0001)  missing value:  1.234567000000E+05 ; for integers:   123456789
(PID.TID 0000.0001)  Levels:    will be set later
(PID.TID 0000.0001)  Fields:    KPPdiffT
(PID.TID 0000.0001) Creating Output Stream: KPP_ghat
(PID.TID 0000.0001) Output Frequency:     -86400.000000 ; Phase:       43200.000000
(PID.TID 0000.0001)  Averaging Freq.:          0.000000 , Phase:           0.000000 , Cycle:   1
(PID.TID 0000.0001)  missing value:  1.234567000000E+05 ; for integers:   123456789
(PID.TID 0000.0001)  Levels:    will be set later
(PID.TID 0000.0001)  Fields:    KPPghat
(PID.TID 0000.0001) Creating Output Stream: KPP_hbl
(PID.TID 0000.0001) Output Frequency:     -86400.000000 ; Phase:       43200.000000
(PID.TID 0000.0001)  Averaging Freq.:          0.000000 , Phase:           0.000000 , Cycle:   1
(PID.TID 0000.0001)  missing value:  1.234567000000E+05 ; for integers:   123456789
(PID.TID 0000.0001)  Levels:    will be set later
(PID.TID 0000.0001)  Fields:    KPPhbl
(PID.TID 0000.0001) Creating Output Stream: KPPfrac
(PID.TID 0000.0001) Output Frequency:     -86400.000000 ; Phase:       43200.000000
(PID.TID 0000.0001)  Averaging Freq.:          0.000000 , Phase:           0.000000 , Cycle:   1
(PID.TID 0000.0001)  missing value:  1.234567000000E+05 ; for integers:   123456789
(PID.TID 0000.0001)  Levels:    will be set later
(PID.TID 0000.0001)  Fields:    KPPfrac
(PID.TID 0000.0001) Creating Output Stream: MXLDEPTH
(PID.TID 0000.0001) Output Frequency:     -86400.000000 ; Phase:       43200.000000
(PID.TID 0000.0001)  Averaging Freq.:          0.000000 , Phase:           0.000000 , Cycle:   1
(PID.TID 0000.0001)  missing value:  1.234567000000E+05 ; for integers:   123456789
(PID.TID 0000.0001)  Levels:    will be set later
(PID.TID 0000.0001)  Fields:    MXLDEPTH
(PID.TID 0000.0001) -----------------------------------------------------
(PID.TID 0000.0001)  DIAGNOSTICS_READPARMS: statistics diags. summary:
(PID.TID 0000.0001) -----------------------------------------------------
(PID.TID 0000.0001) 
(PID.TID 0000.0001) SET_PARMS: done
(PID.TID 0000.0001) Enter INI_VERTICAL_GRID: setInterFDr=    T ; setCenterDr=    F
(PID.TID 0000.0001) %MON XC_max                       =  -3.0000000000000E+00
(PID.TID 0000.0001) %MON XC_min                       =  -4.1000000000000E+01
(PID.TID 0000.0001) %MON XC_mean                      =  -2.2000000000000E+01
(PID.TID 0000.0001) %MON XC_sd                        =   1.1532562594671E+01
(PID.TID 0000.0001) %MON XG_max                       =  -4.0000000000000E+00
(PID.TID 0000.0001) %MON XG_min                       =  -4.2000000000000E+01
(PID.TID 0000.0001) %MON XG_mean                      =  -2.3000000000000E+01
(PID.TID 0000.0001) %MON XG_sd                        =   1.1532562594671E+01
(PID.TID 0000.0001) %MON DXC_max                      =   2.1826966005878E+05
(PID.TID 0000.0001) %MON DXC_min                      =   1.6781340848749E+05
(PID.TID 0000.0001) %MON DXC_mean                     =   1.9727395728441E+05
(PID.TID 0000.0001) %MON DXC_sd                       =   1.5731168072696E+04
(PID.TID 0000.0001) %MON DXF_max                      =   2.1826966005878E+05
(PID.TID 0000.0001) %MON DXF_min                      =   1.6781340848749E+05
(PID.TID 0000.0001) %MON DXF_mean                     =   1.9727395728441E+05
(PID.TID 0000.0001) %MON DXF_sd                       =   1.5731168072696E+04
(PID.TID 0000.0001) %MON DXG_max                      =   2.1897687543479E+05
(PID.TID 0000.0001) %MON DXG_min                      =   1.7033377132268E+05
(PID.TID 0000.0001) %MON DXG_mean                     =   1.9892312861058E+05
(PID.TID 0000.0001) %MON DXG_sd                       =   1.5180938630473E+04
(PID.TID 0000.0001) %MON DXV_max                      =   2.1897687543479E+05
(PID.TID 0000.0001) %MON DXV_min                      =   1.7033377132268E+05
(PID.TID 0000.0001) %MON DXV_mean                     =   1.9892312861058E+05
(PID.TID 0000.0001) %MON DXV_sd                       =   1.5180938630473E+04
(PID.TID 0000.0001) %MON YC_max                       =   4.1000000000000E+01
(PID.TID 0000.0001) %MON YC_min                       =   1.1000000000000E+01
(PID.TID 0000.0001) %MON YC_mean                      =   2.6000000000000E+01
(PID.TID 0000.0001) %MON YC_sd                        =   9.2195444572929E+00
(PID.TID 0000.0001) %MON YG_max                       =   4.0000000000000E+01
(PID.TID 0000.0001) %MON YG_min                       =   1.0000000000000E+01
(PID.TID 0000.0001) %MON YG_mean                      =   2.5000000000000E+01
(PID.TID 0000.0001) %MON YG_sd                        =   9.2195444572929E+00
(PID.TID 0000.0001) %MON DYC_max                      =   2.2235494670408E+05
(PID.TID 0000.0001) %MON DYC_min                      =   2.2235494670408E+05
(PID.TID 0000.0001) %MON DYC_mean                     =   2.2235494670408E+05
(PID.TID 0000.0001) %MON DYC_sd                       =   4.6566128730774E-10
(PID.TID 0000.0001) %MON DYF_max                      =   2.2235494670408E+05
(PID.TID 0000.0001) %MON DYF_min                      =   2.2235494670408E+05
(PID.TID 0000.0001) %MON DYF_mean                     =   2.2235494670408E+05
(PID.TID 0000.0001) %MON DYF_sd                       =   4.6566128730774E-10
(PID.TID 0000.0001) %MON DYG_max                      =   2.2235494670408E+05
(PID.TID 0000.0001) %MON DYG_min                      =   2.2235494670408E+05
(PID.TID 0000.0001) %MON DYG_mean                     =   2.2235494670408E+05
(PID.TID 0000.0001) %MON DYG_sd                       =   4.6566128730774E-10
(PID.TID 0000.0001) %MON DYU_max                      =   2.2235494670408E+05
(PID.TID 0000.0001) %MON DYU_min                      =   2.2235494670408E+05
(PID.TID 0000.0001) %MON DYU_mean                     =   2.2235494670408E+05
(PID.TID 0000.0001) %MON DYU_sd                       =   4.6566128730774E-10
(PID.TID 0000.0001) %MON RA_max                       =   4.8530874650285E+10
(PID.TID 0000.0001) %MON RA_min                       =   3.7312247106402E+10
(PID.TID 0000.0001) %MON RA_mean                      =   4.3862613292919E+10
(PID.TID 0000.0001) %MON RA_sd                        =   3.4977254540690E+09
(PID.TID 0000.0001) %MON RAW_max                      =   4.8530874650285E+10
(PID.TID 0000.0001) %MON RAW_min                      =   3.7312247106402E+10
(PID.TID 0000.0001) %MON RAW_mean                     =   4.3862613292919E+10
(PID.TID 0000.0001) %MON RAW_sd                       =   3.4977254540690E+09
(PID.TID 0000.0001) %MON RAS_max                      =   4.8688119503989E+10
(PID.TID 0000.0001) %MON RAS_min                      =   3.7872633798691E+10
(PID.TID 0000.0001) %MON RAS_mean                     =   4.4229296078267E+10
(PID.TID 0000.0001) %MON RAS_sd                       =   3.3753854271397E+09
(PID.TID 0000.0001) %MON RAZ_max                      =   4.8688119503989E+10
(PID.TID 0000.0001) %MON RAZ_min                      =   3.7872633798691E+10
(PID.TID 0000.0001) %MON RAZ_mean                     =   4.4229296078267E+10
(PID.TID 0000.0001) %MON RAZ_sd                       =   3.3753854271397E+09
(PID.TID 0000.0001) %MON AngleCS_max                  =   1.0000000000000E+00
(PID.TID 0000.0001) %MON AngleCS_min                  =   1.0000000000000E+00
(PID.TID 0000.0001) %MON AngleCS_mean                 =   1.0000000000000E+00
(PID.TID 0000.0001) %MON AngleCS_sd                   =   0.0000000000000E+00
(PID.TID 0000.0001) %MON AngleSN_max                  =   0.0000000000000E+00
(PID.TID 0000.0001) %MON AngleSN_min                  =   0.0000000000000E+00
(PID.TID 0000.0001) %MON AngleSN_mean                 =   0.0000000000000E+00
(PID.TID 0000.0001) %MON AngleSN_sd                   =   0.0000000000000E+00
(PID.TID 0000.0001)  MDS_READ_FIELD: opening global file: kf_topog
(PID.TID 0000.0001) // =======================================================
(PID.TID 0000.0001) // Field Model R_low (ini_masks_etc) at iteration          1
(PID.TID 0000.0001) // CMIN =         -5.200000000000000E+03
(PID.TID 0000.0001) // CMAX =         -3.600000000000000E+02
(PID.TID 0000.0001) // CINT =          1.792592592592593E+02
(PID.TID 0000.0001) // SYMBOLS (CMIN->CMAX): -abcdefghijklmnopqrstuvwxyz+
(PID.TID 0000.0001) //                  0.0: .
(PID.TID 0000.0001) // RANGE I (Lo:Hi:Step):(  -3:  24:   1)
(PID.TID 0000.0001) // RANGE J (Lo:Hi:Step):(  20:  -3:  -1)
(PID.TID 0000.0001) // RANGE K (Lo:Hi:Step):(   1:   1:   1)
(PID.TID 0000.0001) // =======================================================
(PID.TID 0000.0001) K =   1
(PID.TID 0000.0001) //                I=6       I=8       I=18
(PID.TID 0000.0001) // |--J--|321012345|789012347|901234567|901234
(PID.TID 0000.0001) //     20 .....cc-----cfkhkz--cfkhkz.......cc-
(PID.TID 0000.0001) //     19 .....c-------cccfy---cccfy.......c--
(PID.TID 0000.0001) //     18 .....hcc------ccfx----ccfx.......hcc
(PID.TID 0000.0001) //     17 ....................................
(PID.TID 0000.0001) //     16 ....................................
(PID.TID 0000.0001) //     15 hv+..fhknsqknnff-cqknnff-ckhhv+..fhk
(PID.TID 0000.0001) //     14 fhx..hknnnnkhcc-chnkhcc-chhhfhx..hkn
(PID.TID 0000.0001) //     13 fz...knnkhknf--chkknf--chkfffz...knn
(PID.TID 0000.0001) //     12 q....nkhfffhc--cfffhc--cffhnq....nkh
(PID.TID 0000.0001) //     11 +....khfccccc-ccfkccc-ccfkkv+....khf
(PID.TID 0000.0001) //     10 .....hcc---cc-cfhk-cc-cfhks......hcc
(PID.TID 0000.0001) //      9 .....fc-------cfkq----cfkq.......fc-
(PID.TID 0000.0001) //      8 .....c-------ccfkx---ccfkx.......c--
(PID.TID 0000.0001) //      7 .....c---cfcccfhk+fcccfhk+.......c--
(PID.TID 0000.0001) //      6 .....c---cccffhknvccffhknv.......c--
(PID.TID 0000.0001) //      5 .....c--ccccfkkkkqccfkkkkq.......c--
(PID.TID 0000.0001) //     12 q....nkhfffhc--cfffhc--cffhnq....nkh
(PID.TID 0000.0001) //     11 +....khfccccc-ccfkccc-ccfkkv+....khf
(PID.TID 0000.0001) //     10 .....hcc---cc-cfhk-cc-cfhks......hcc
(PID.TID 0000.0001) //      9 .....fc-------cfkq----cfkq.......fc-
(PID.TID 0000.0001) //      8 .....c-------ccfkx---ccfkx.......c--
(PID.TID 0000.0001) //      7 .....c---cfcccfhk+fcccfhk+.......c--
(PID.TID 0000.0001) //      6 .....c---cccffhknvccffhknv.......c--
(PID.TID 0000.0001) //      5 .....c--ccccfkkkkqccfkkkkq.......c--
(PID.TID 0000.0001) //      4 .....cc-----cfkhkz--cfkhkz.......cc-
(PID.TID 0000.0001) //      3 .....c-------cccfy---cccfy.......c--
(PID.TID 0000.0001) //      2 .....hcc------ccfx----ccfx.......hcc
(PID.TID 0000.0001) //      1 ....................................
(PID.TID 0000.0001) //      0 ....................................
(PID.TID 0000.0001) //     -1 hv+..fhknsqknnff-cqknnff-ckhhv+..fhk
(PID.TID 0000.0001) //     -2 fhx..hknnnnkhcc-chnkhcc-chhhfhx..hkn
(PID.TID 0000.0001) //     -3 fz...knnkhknf--chkknf--chkfffz...knn
(PID.TID 0000.0001) // =======================================================
(PID.TID 0000.0001) // END OF FIELD                                          =
(PID.TID 0000.0001) // =======================================================
(PID.TID 0000.0001) 
(PID.TID 0000.0001) // =======================================================
(PID.TID 0000.0001) // Field Model Ro_surf (ini_masks_etc) at iteration          1
(PID.TID 0000.0001) // CMIN =          1.000000000000000E+32
(PID.TID 0000.0001) // CMAX =         -1.000000000000000E+32
(PID.TID 0000.0001) // CINT =          0.000000000000000E+00
(PID.TID 0000.0001) // SYMBOLS (CMIN->CMAX): -abcdefghijklmnopqrstuvwxyz+
(PID.TID 0000.0001) //                  0.0: .
(PID.TID 0000.0001) // RANGE I (Lo:Hi:Step):(  -3:  24:   1)
(PID.TID 0000.0001) // RANGE J (Lo:Hi:Step):(  20:  -3:  -1)
(PID.TID 0000.0001) // RANGE K (Lo:Hi:Step):(   1:   1:   1)
(PID.TID 0000.0001) // =======================================================
(PID.TID 0000.0001) // =======================================================
(PID.TID 0000.0001) // END OF FIELD                                          =
(PID.TID 0000.0001) // =======================================================
(PID.TID 0000.0001) 
(PID.TID 0000.0001) // =======================================================
(PID.TID 0000.0001) // Field hFacC at iteration          1
(PID.TID 0000.0001) // CMIN =          1.000000000000000E+00
(PID.TID 0000.0001) // CMAX =          1.000000000000000E+00
(PID.TID 0000.0001) // CINT =          0.000000000000000E+00
(PID.TID 0000.0001) // SYMBOLS (CMIN->CMAX): -abcdefghijklmnopqrstuvwxyz+
(PID.TID 0000.0001) //                  0.0: .
(PID.TID 0000.0001) // RANGE I (Lo:Hi:Step):(  -3:  24:   1)
(PID.TID 0000.0001) // RANGE J (Lo:Hi:Step):(  20:  -3:  -1)
(PID.TID 0000.0001) // RANGE K (Lo:Hi:Step):(   1:   1:   1)
(PID.TID 0000.0001) // =======================================================
(PID.TID 0000.0001) // =======================================================
(PID.TID 0000.0001) // END OF FIELD                                          =
(PID.TID 0000.0001) // =======================================================
(PID.TID 0000.0001) 
(PID.TID 0000.0001) // =======================================================
(PID.TID 0000.0001) // Field hFacW at iteration          1
(PID.TID 0000.0001) // CMIN =          1.000000000000000E+00
(PID.TID 0000.0001) // CMAX =          1.000000000000000E+00
(PID.TID 0000.0001) // CINT =          0.000000000000000E+00
(PID.TID 0000.0001) // SYMBOLS (CMIN->CMAX): -abcdefghijklmnopqrstuvwxyz+
(PID.TID 0000.0001) //                  0.0: .
(PID.TID 0000.0001) // RANGE I (Lo:Hi:Step):(  -3:  24:   1)
(PID.TID 0000.0001) // RANGE J (Lo:Hi:Step):(  20:  -3:  -1)
(PID.TID 0000.0001) // RANGE K (Lo:Hi:Step):(   1:   1:   1)
(PID.TID 0000.0001) // =======================================================
(PID.TID 0000.0001) // =======================================================
(PID.TID 0000.0001) // END OF FIELD                                          =
(PID.TID 0000.0001) // =======================================================
(PID.TID 0000.0001) 
(PID.TID 0000.0001) // =======================================================
(PID.TID 0000.0001) // Field hFacS at iteration          1
(PID.TID 0000.0001) // CMIN =          1.000000000000000E+00
(PID.TID 0000.0001) // CMAX =          1.000000000000000E+00
(PID.TID 0000.0001) // CINT =          0.000000000000000E+00
(PID.TID 0000.0001) // SYMBOLS (CMIN->CMAX): -abcdefghijklmnopqrstuvwxyz+
(PID.TID 0000.0001) //                  0.0: .
(PID.TID 0000.0001) // RANGE I (Lo:Hi:Step):(  -3:  24:   1)
(PID.TID 0000.0001) // RANGE J (Lo:Hi:Step):(  20:  -3:  -1)
(PID.TID 0000.0001) // RANGE K (Lo:Hi:Step):(   1:   1:   1)
(PID.TID 0000.0001) // =======================================================
(PID.TID 0000.0001) // =======================================================
(PID.TID 0000.0001) // END OF FIELD                                          =
(PID.TID 0000.0001) // =======================================================
(PID.TID 0000.0001) 
(PID.TID 0000.0001) 
(PID.TID 0000.0001) // ===================================
(PID.TID 0000.0001) // GAD parameters :
(PID.TID 0000.0001) // ===================================
(PID.TID 0000.0001) tempAdvScheme =   /* Temp. Horiz.Advection scheme selector */
(PID.TID 0000.0001)                       2
(PID.TID 0000.0001)     ;
(PID.TID 0000.0001) tempVertAdvScheme =   /* Temp. Vert. Advection scheme selector */
(PID.TID 0000.0001)                       2
(PID.TID 0000.0001)     ;
(PID.TID 0000.0001) tempMultiDimAdvec =   /* use Muti-Dim Advec method for Temp */
(PID.TID 0000.0001)                   F
(PID.TID 0000.0001)     ;
(PID.TID 0000.0001) tempSOM_Advection = /* use 2nd Order Moment Advection for Temp */
(PID.TID 0000.0001)                   F
(PID.TID 0000.0001)     ;
(PID.TID 0000.0001) AdamsBashforthGt = /* apply Adams-Bashforth extrapolation on Gt */
(PID.TID 0000.0001)                   T
(PID.TID 0000.0001)     ;
(PID.TID 0000.0001) AdamsBashforth_T = /* apply Adams-Bashforth extrapolation on Temp */
(PID.TID 0000.0001)                   F
(PID.TID 0000.0001)     ;
(PID.TID 0000.0001) saltAdvScheme =   /* Salt. Horiz.advection scheme selector */
(PID.TID 0000.0001)                       2
(PID.TID 0000.0001)     ;
(PID.TID 0000.0001) saltVertAdvScheme =   /* Salt. Vert. Advection scheme selector */
(PID.TID 0000.0001)                       2
(PID.TID 0000.0001)     ;
(PID.TID 0000.0001) saltMultiDimAdvec =   /* use Muti-Dim Advec method for Salt */
(PID.TID 0000.0001)                   F
(PID.TID 0000.0001)     ;
(PID.TID 0000.0001) saltSOM_Advection = /* use 2nd Order Moment Advection for Salt */
(PID.TID 0000.0001)                   F
(PID.TID 0000.0001)     ;
(PID.TID 0000.0001) AdamsBashforthGs = /* apply Adams-Bashforth extrapolation on Gs */
(PID.TID 0000.0001)                   T
(PID.TID 0000.0001)     ;
(PID.TID 0000.0001) AdamsBashforth_S = /* apply Adams-Bashforth extrapolation on Salt */
(PID.TID 0000.0001)                   F
(PID.TID 0000.0001)     ;
(PID.TID 0000.0001) // ===================================
(PID.TID 0000.0001) ------------------------------------------------------------
(PID.TID 0000.0001) DIAGNOSTICS_SET_LEVELS: done
(PID.TID 0000.0001)  Total Nb of available Diagnostics: ndiagt=   184
(PID.TID 0000.0001)  write list of available Diagnostics to file: available_diagnostics.log
(PID.TID 0000.0001) SETDIAG: Allocate 23 x  1 Levels for Diagnostic #   171 KPPviscA
(PID.TID 0000.0001) SETDIAG: Allocate 23 x  1 Levels for Diagnostic #   172 KPPdiffS
(PID.TID 0000.0001) SETDIAG: Allocate 23 x  1 Levels for Diagnostic #   173 KPPdiffT
(PID.TID 0000.0001) SETDIAG: Allocate 23 x  1 Levels for Diagnostic #   174 KPPghat
(PID.TID 0000.0001) SETDIAG: Allocate  1 x  1 Levels for Diagnostic #   175 KPPhbl
(PID.TID 0000.0001) SETDIAG: Allocate  1 x  1 Levels for Diagnostic #   176 KPPfrac
(PID.TID 0000.0001) SETDIAG: Allocate  1 x  1 Levels for Diagnostic #    71 MXLDEPTH
(PID.TID 0000.0001)   space allocated for all diagnostics:      95 levels
(PID.TID 0000.0001) DIAGNOSTICS_SET_POINTERS: Set levels for Outp.Stream: KPPviscA
(PID.TID 0000.0001)  Levels:       1.   2.   3.   4.   5.   6.   7.   8.   9.  10.  11.  12.  13.  14.  15.  16.  17.  18.  19.  20.
(PID.TID 0000.0001)  Levels:      21.  22.  23.
(PID.TID 0000.0001) DIAGNOSTICS_SET_POINTERS: Set levels for Outp.Stream: KPPdiffS
(PID.TID 0000.0001)  Levels:       1.   2.   3.   4.   5.   6.   7.   8.   9.  10.  11.  12.  13.  14.  15.  16.  17.  18.  19.  20.
(PID.TID 0000.0001)  Levels:      21.  22.  23.
(PID.TID 0000.0001) DIAGNOSTICS_SET_POINTERS: Set levels for Outp.Stream: KPPdiffT
(PID.TID 0000.0001)  Levels:       1.   2.   3.   4.   5.   6.   7.   8.   9.  10.  11.  12.  13.  14.  15.  16.  17.  18.  19.  20.
(PID.TID 0000.0001)  Levels:      21.  22.  23.
(PID.TID 0000.0001) DIAGNOSTICS_SET_POINTERS: Set levels for Outp.Stream: KPP_ghat
(PID.TID 0000.0001)  Levels:       1.   2.   3.   4.   5.   6.   7.   8.   9.  10.  11.  12.  13.  14.  15.  16.  17.  18.  19.  20.
(PID.TID 0000.0001)  Levels:      21.  22.  23.
(PID.TID 0000.0001) DIAGNOSTICS_SET_POINTERS: Set levels for Outp.Stream: KPP_hbl
(PID.TID 0000.0001)  Levels:       1.
(PID.TID 0000.0001) DIAGNOSTICS_SET_POINTERS: Set levels for Outp.Stream: KPPfrac
(PID.TID 0000.0001)  Levels:       1.
(PID.TID 0000.0001) DIAGNOSTICS_SET_POINTERS: Set levels for Outp.Stream: MXLDEPTH
(PID.TID 0000.0001)  Levels:       1.
(PID.TID 0000.0001) DIAGNOSTICS_SET_POINTERS: done
(PID.TID 0000.0001) ------------------------------------------------------------
(PID.TID 0000.0001) DIAGSTATS_SET_REGIONS: define no region
(PID.TID 0000.0001) ------------------------------------------------------------
(PID.TID 0000.0001)   space allocated for all stats-diags:       0 levels
(PID.TID 0000.0001) DIAGSTATS_SET_POINTERS: done
(PID.TID 0000.0001) ------------------------------------------------------------
(PID.TID 0000.0001) %MON fCori_max                    =   9.5681269476711E-05
(PID.TID 0000.0001) %MON fCori_min                    =   2.7828055248772E-05
(PID.TID 0000.0001) %MON fCori_mean                   =   6.3108629295410E-05
(PID.TID 0000.0001) %MON fCori_sd                     =   2.0943015160624E-05
(PID.TID 0000.0001) %MON fCoriG_max                   =   9.3745732900505E-05
(PID.TID 0000.0001) %MON fCoriG_min                   =   2.5325279200951E-05
(PID.TID 0000.0001) %MON fCoriG_mean                  =   6.0840818126420E-05
(PID.TID 0000.0001) %MON fCoriG_sd                    =   2.1116986447899E-05
(PID.TID 0000.0001) %MON fCoriCos_max                 =   1.4316293338671E-04
(PID.TID 0000.0001) %MON fCoriCos_min                 =   1.1006870956881E-04
(PID.TID 0000.0001) %MON fCoriCos_mean                =   1.2939186508118E-04
(PID.TID 0000.0001) %MON fCoriCos_sd                  =   1.0318063290519E-05
(PID.TID 0000.0001) INI_CG2D: CG2D normalisation factor =  1.5752923928634454E-04
(PID.TID 0000.0001) 
(PID.TID 0000.0001) // =======================================================
(PID.TID 0000.0001) // Model configuration
(PID.TID 0000.0001) // =======================================================
(PID.TID 0000.0001) //
(PID.TID 0000.0001) // "Physical" paramters ( PARM01 in namelist )
(PID.TID 0000.0001) //
(PID.TID 0000.0001) buoyancyRelation = /* Type of relation to get Buoyancy */
(PID.TID 0000.0001)               'OCEANIC'
(PID.TID 0000.0001)     ;
(PID.TID 0000.0001) fluidIsAir  =  /* fluid major constituent is Air */
(PID.TID 0000.0001)                   F
(PID.TID 0000.0001)     ;
(PID.TID 0000.0001) fluidIsWater=  /* fluid major constituent is Water */
(PID.TID 0000.0001)                   T
(PID.TID 0000.0001)     ;
(PID.TID 0000.0001) usingPCoords =  /* use p (or p*) vertical coordinate */
(PID.TID 0000.0001)                   F
(PID.TID 0000.0001)     ;
(PID.TID 0000.0001) usingZCoords =  /* use z (or z*) vertical coordinate */
(PID.TID 0000.0001)                   T
(PID.TID 0000.0001)     ;
(PID.TID 0000.0001) tRef =   /* Reference temperature profile ( oC or K ) */
(PID.TID 0000.0001)    23 @  2.000000000000000E+01              /* K =  1: 23 */
(PID.TID 0000.0001)     ;
(PID.TID 0000.0001) sRef =   /* Reference salinity profile ( psu ) */
(PID.TID 0000.0001)    23 @  3.000000000000000E+01              /* K =  1: 23 */
(PID.TID 0000.0001)     ;
(PID.TID 0000.0001) viscAh =   /* Lateral eddy viscosity ( m^2/s ) */
(PID.TID 0000.0001)                 5.000000000000000E+04
(PID.TID 0000.0001)     ;
(PID.TID 0000.0001) viscAhMax =   /* Maximum lateral eddy viscosity ( m^2/s ) */
(PID.TID 0000.0001)                 1.000000000000000E+21
(PID.TID 0000.0001)     ;
(PID.TID 0000.0001) viscAhGrid =   /* Grid dependent lateral eddy viscosity ( non-dim. ) */
(PID.TID 0000.0001)                 0.000000000000000E+00
(PID.TID 0000.0001)     ;
(PID.TID 0000.0001) useFullLeith =   /* Use Full Form of Leith Viscosity on/off flag*/
(PID.TID 0000.0001)                   F
(PID.TID 0000.0001)     ;
(PID.TID 0000.0001) useStrainTensionVisc =   /* Use StrainTension Form of Viscous Operator on/off flag*/
(PID.TID 0000.0001)                   F
(PID.TID 0000.0001)     ;
(PID.TID 0000.0001) useAreaViscLength =   /* Use area for visc length instead of geom. mean*/
(PID.TID 0000.0001)                   F
(PID.TID 0000.0001)     ;
(PID.TID 0000.0001) viscC2leith = /* Leith harmonic visc. factor (on grad(vort),non-dim.) */
(PID.TID 0000.0001)                 0.000000000000000E+00
(PID.TID 0000.0001)     ;
(PID.TID 0000.0001) viscC2leithD = /* Leith harmonic viscosity factor (on grad(div),non-dim.) */
(PID.TID 0000.0001)                 0.000000000000000E+00
(PID.TID 0000.0001)     ;
(PID.TID 0000.0001) viscC2smag =   /* Smagorinsky harmonic viscosity factor (non-dim.) */
(PID.TID 0000.0001)                 0.000000000000000E+00
(PID.TID 0000.0001)     ;
(PID.TID 0000.0001) viscA4 =   /* Lateral biharmonic viscosity ( m^4/s ) */
(PID.TID 0000.0001)                 5.000000000000000E+12
(PID.TID 0000.0001)     ;
(PID.TID 0000.0001) viscA4Max =   /* Maximum biharmonic viscosity ( m^2/s ) */
(PID.TID 0000.0001)                 1.000000000000000E+21
(PID.TID 0000.0001)     ;
(PID.TID 0000.0001) viscA4Grid =   /* Grid dependent biharmonic viscosity ( non-dim. ) */
(PID.TID 0000.0001)                 0.000000000000000E+00
(PID.TID 0000.0001)     ;
(PID.TID 0000.0001) viscC4leith = /* Leith biharm viscosity factor (on grad(vort), non-dim.) */
(PID.TID 0000.0001)                 0.000000000000000E+00
(PID.TID 0000.0001)     ;
(PID.TID 0000.0001) viscC4leithD = /* Leith biharm viscosity factor (on grad(div), non-dim.) */
(PID.TID 0000.0001)                 0.000000000000000E+00
(PID.TID 0000.0001)     ;
(PID.TID 0000.0001) viscC4Smag = /* Smagorinsky biharm viscosity factor (non-dim) */
(PID.TID 0000.0001)                 0.000000000000000E+00
(PID.TID 0000.0001)     ;
(PID.TID 0000.0001) no_slip_sides =  /* Viscous BCs: No-slip sides */
(PID.TID 0000.0001)                   F
(PID.TID 0000.0001)     ;
(PID.TID 0000.0001) sideDragFactor = /* side-drag scaling factor (non-dim) */
(PID.TID 0000.0001)                 2.000000000000000E+00
(PID.TID 0000.0001)     ;
(PID.TID 0000.0001) viscArNr = /* vertical profile of vertical viscosity ( m^2/s )*/
(PID.TID 0000.0001)    23 @  1.000000000000000E-03              /* K =  1: 23 */
(PID.TID 0000.0001)     ;
(PID.TID 0000.0001) no_slip_bottom =  /* Viscous BCs: No-slip bottom */
(PID.TID 0000.0001)                   T
(PID.TID 0000.0001)     ;
(PID.TID 0000.0001) bottomDragLinear = /* linear bottom-drag coefficient ( m/s ) */
(PID.TID 0000.0001)                 0.000000000000000E+00
(PID.TID 0000.0001)     ;
(PID.TID 0000.0001) bottomDragQuadratic = /* quadratic bottom-drag coefficient (-) */
(PID.TID 0000.0001)                 0.000000000000000E+00
(PID.TID 0000.0001)     ;
(PID.TID 0000.0001) diffKhT =   /* Laplacian diffusion of heat laterally ( m^2/s ) */
(PID.TID 0000.0001)                 1.000000000000000E+03
(PID.TID 0000.0001)     ;
(PID.TID 0000.0001) diffK4T =   /* Biharmonic diffusion of heat laterally ( m^4/s ) */
(PID.TID 0000.0001)                 0.000000000000000E+00
(PID.TID 0000.0001)     ;
(PID.TID 0000.0001) diffKhS =   /* Laplacian diffusion of salt laterally ( m^2/s ) */
(PID.TID 0000.0001)                 1.000000000000000E+03
(PID.TID 0000.0001)     ;
(PID.TID 0000.0001) diffK4S =   /* Biharmonic diffusion of salt laterally ( m^4/s ) */
(PID.TID 0000.0001)                 0.000000000000000E+00
(PID.TID 0000.0001)     ;
(PID.TID 0000.0001) diffKrNrT = /* vertical profile of vertical diffusion of Temp ( m^2/s )*/
(PID.TID 0000.0001)    23 @  1.000000000000000E-05              /* K =  1: 23 */
(PID.TID 0000.0001)     ;
(PID.TID 0000.0001) diffKrNrS = /* vertical profile of vertical diffusion of Salt ( m^2/s )*/
(PID.TID 0000.0001)    23 @  1.000000000000000E-05              /* K =  1: 23 */
(PID.TID 0000.0001)     ;
(PID.TID 0000.0001) diffKrBL79surf = /* Surface diffusion for Bryan and Lewis 79 ( m^2/s ) */
(PID.TID 0000.0001)                 0.000000000000000E+00
(PID.TID 0000.0001)     ;
(PID.TID 0000.0001) diffKrBL79deep = /* Deep diffusion for Bryan and Lewis 1979 ( m^2/s ) */
(PID.TID 0000.0001)                 0.000000000000000E+00
(PID.TID 0000.0001)     ;
(PID.TID 0000.0001) diffKrBL79scl = /* Depth scale for Bryan and Lewis 1979 ( m ) */
(PID.TID 0000.0001)                 2.000000000000000E+02
(PID.TID 0000.0001)     ;
(PID.TID 0000.0001) diffKrBL79Ho = /* Turning depth for Bryan and Lewis 1979 ( m ) */
(PID.TID 0000.0001)                -2.000000000000000E+03
(PID.TID 0000.0001)     ;
(PID.TID 0000.0001) ivdc_kappa = /* Implicit Vertical Diffusivity for Convection ( m^2/s ) */
(PID.TID 0000.0001)                 0.000000000000000E+00
(PID.TID 0000.0001)     ;
(PID.TID 0000.0001) hMixCriteria=  /* Criteria for mixed-layer diagnostic */
(PID.TID 0000.0001)                -8.000000000000000E-01
(PID.TID 0000.0001)     ;
(PID.TID 0000.0001) dRhoSmall=  /* Parameter for mixed-layer diagnostic */
(PID.TID 0000.0001)                 1.000000000000000E-06
(PID.TID 0000.0001)     ;
(PID.TID 0000.0001) hMixSmooth=  /* Smoothing parameter for mixed-layer diagnostic */
(PID.TID 0000.0001)                 0.000000000000000E+00
(PID.TID 0000.0001)     ;
(PID.TID 0000.0001) eosType =  /* Type of Equation of State */
(PID.TID 0000.0001)               'POLY3 '
(PID.TID 0000.0001)     ;
(PID.TID 0000.0001) tAlpha =   /* Linear EOS thermal expansion coefficient ( 1/oC ) */
(PID.TID 0000.0001)                 2.000000000000000E-04
(PID.TID 0000.0001)     ;
(PID.TID 0000.0001) sBeta =   /* Linear EOS haline contraction coefficient ( 1/psu ) */
(PID.TID 0000.0001)                 7.400000000000000E-04
(PID.TID 0000.0001)     ;
(PID.TID 0000.0001)   1  13.499  32.600  24.480  -0.201   0.771  -0.005  -0.002   0.000   0.000   0.000   0.000   0.000
(PID.TID 0000.0001)   2  13.498  32.600  24.525  -0.202   0.771  -0.005  -0.002   0.000   0.000   0.000   0.000   0.000
(PID.TID 0000.0001)   3  13.496  32.600  24.581  -0.202   0.771  -0.005  -0.002   0.000   0.000   0.000   0.000   0.000
(PID.TID 0000.0001)   4  13.494  32.600  24.660  -0.202   0.771  -0.005  -0.002   0.000   0.000   0.000   0.000   0.000
(PID.TID 0000.0001)   5  13.491  32.600  24.750  -0.203   0.771  -0.005  -0.002   0.000   0.000   0.000   0.000   0.000
(PID.TID 0000.0001)   6  13.488  32.600  24.851  -0.203   0.770  -0.005  -0.002   0.000   0.000   0.000   0.000   0.000
(PID.TID 0000.0001)   7  13.484  32.600  24.985  -0.204   0.770  -0.005  -0.002   0.000   0.000   0.000   0.000   0.000
(PID.TID 0000.0001)   8  13.478  32.600  25.176  -0.204   0.770  -0.005  -0.002   0.000   0.000   0.000   0.000   0.000
(PID.TID 0000.0001)   9  13.469  32.600  25.456  -0.205   0.769  -0.005  -0.002   0.000   0.000   0.000   0.000   0.000
(PID.TID 0000.0001)  10   8.467  35.150  28.748  -0.163   0.781  -0.005  -0.002   0.001   0.000   0.000   0.000   0.000
(PID.TID 0000.0001)  11   8.454  35.150  29.315  -0.166   0.780  -0.005  -0.002   0.001   0.000   0.000   0.000   0.000
(PID.TID 0000.0001)  12   5.946  34.900  30.300  -0.143   0.785  -0.006  -0.002   0.001   0.000   0.000   0.000   0.000
(PID.TID 0000.0001)  13   4.433  34.900  31.591  -0.132   0.786  -0.006  -0.003   0.000   0.000   0.000   0.000   0.000
(PID.TID 0000.0001)  14   3.909  34.750  32.966  -0.134   0.785  -0.006  -0.003   0.000   0.000   0.000   0.000   0.000
(PID.TID 0000.0001)  15   1.899  34.800  35.002  -0.121   0.787  -0.006  -0.003   0.000   0.000   0.000   0.000   0.000
(PID.TID 0000.0001)  16   1.372  34.750  36.991  -0.127   0.785  -0.006  -0.003  -0.001   0.000   0.000   0.000   0.000
(PID.TID 0000.0001)  17   1.332  34.800  39.171  -0.140   0.782  -0.006  -0.003  -0.001   0.000   0.000   0.000   0.000
(PID.TID 0000.0001)  18   0.797  34.800  41.472  -0.147   0.779  -0.006  -0.003  -0.001   0.000   0.000   0.000   0.000
(PID.TID 0000.0001)  19   0.749  34.800  43.682  -0.160   0.775  -0.005  -0.002  -0.002   0.000   0.000   0.000   0.000
(PID.TID 0000.0001)  20   0.214  34.750  45.912  -0.168   0.772  -0.005  -0.002  -0.002   0.000   0.000   0.000   0.000
(PID.TID 0000.0001)  21   0.160  34.750  48.080  -0.181   0.768  -0.005  -0.002  -0.003   0.000   0.000   0.000   0.000
(PID.TID 0000.0001)  22   0.584  34.750  50.131  -0.197   0.763  -0.005  -0.002  -0.001   0.000   0.000   0.000   0.000
(PID.TID 0000.0001)  23   0.522  34.750  52.248  -0.209   0.760  -0.005  -0.002  -0.002   0.000   0.000   0.000   0.000
(PID.TID 0000.0001) rhonil =   /* Reference density ( kg/m^3 ) */
(PID.TID 0000.0001)                 9.998000000000000E+02
(PID.TID 0000.0001)     ;
(PID.TID 0000.0001) rhoConst =   /* Reference density ( kg/m^3 ) */
(PID.TID 0000.0001)                 9.998000000000000E+02
(PID.TID 0000.0001)     ;
(PID.TID 0000.0001) rhoFacC = /* normalized Reference density @ cell-Center (-) */
(PID.TID 0000.0001)    23 @  1.000000000000000E+00              /* K =  1: 23 */
(PID.TID 0000.0001)     ;
(PID.TID 0000.0001) rhoFacF = /* normalized Reference density @ W-Interface (-) */
(PID.TID 0000.0001)    24 @  1.000000000000000E+00              /* K =  1: 24 */
(PID.TID 0000.0001)     ;
(PID.TID 0000.0001) rhoConstFresh =   /* Reference density ( kg/m^3 ) */
(PID.TID 0000.0001)                 9.998000000000000E+02
(PID.TID 0000.0001)     ;
(PID.TID 0000.0001) gravity =   /* Gravitational acceleration ( m/s^2 ) */
(PID.TID 0000.0001)                 9.810000000000000E+00
(PID.TID 0000.0001)     ;
(PID.TID 0000.0001) gBaro =   /* Barotropic gravity ( m/s^2 ) */
(PID.TID 0000.0001)                 9.810000000000000E+00
(PID.TID 0000.0001)     ;
(PID.TID 0000.0001) rotationPeriod =   /* Rotation Period ( s ) */
(PID.TID 0000.0001)                 8.616400000000000E+04
(PID.TID 0000.0001)     ;
(PID.TID 0000.0001) omega =   /* Angular velocity ( rad/s ) */
(PID.TID 0000.0001)                 7.292123516990375E-05
(PID.TID 0000.0001)     ;
(PID.TID 0000.0001) f0 =   /* Reference coriolis parameter ( 1/s ) */
(PID.TID 0000.0001)                 1.000000000000000E-04
(PID.TID 0000.0001)     ;
(PID.TID 0000.0001) beta =   /* Beta ( 1/(m.s) ) */
(PID.TID 0000.0001)                 9.999999999999999E-12
(PID.TID 0000.0001)     ;
(PID.TID 0000.0001) freeSurfFac =   /* Implicit free surface factor */
(PID.TID 0000.0001)                 1.000000000000000E+00
(PID.TID 0000.0001)     ;
(PID.TID 0000.0001) implicitFreeSurface =   /* Implicit free surface on/off flag */
(PID.TID 0000.0001)                   T
(PID.TID 0000.0001)     ;
(PID.TID 0000.0001) rigidLid =   /* Rigid lid on/off flag */
(PID.TID 0000.0001)                   F
(PID.TID 0000.0001)     ;
(PID.TID 0000.0001) implicSurfPress =   /* Surface Pressure implicit factor (0-1)*/
(PID.TID 0000.0001)                 1.000000000000000E+00
(PID.TID 0000.0001)     ;
(PID.TID 0000.0001) implicDiv2Dflow =   /* Barot. Flow Div. implicit factor (0-1)*/
(PID.TID 0000.0001)                 1.000000000000000E+00
(PID.TID 0000.0001)     ;
(PID.TID 0000.0001) exactConserv =   /* Exact Volume Conservation on/off flag*/
(PID.TID 0000.0001)                   F
(PID.TID 0000.0001)     ;
(PID.TID 0000.0001) linFSConserveTr =   /* Tracer correction for Lin Free Surface on/off flag*/
(PID.TID 0000.0001)                   F
(PID.TID 0000.0001)     ;
(PID.TID 0000.0001) uniformLin_PhiSurf =   /* use uniform Bo_surf on/off flag*/
(PID.TID 0000.0001)                   T
(PID.TID 0000.0001)     ;
(PID.TID 0000.0001) nonlinFreeSurf =   /* Non-linear Free Surf. options (-1,0,1,2,3)*/
(PID.TID 0000.0001)                       0
(PID.TID 0000.0001)     ;
(PID.TID 0000.0001)      -1,0= Off ; 1,2,3= On, 2=+rescale gU,gV, 3=+update cg2d solv.
(PID.TID 0000.0001) hFacInf =   /* lower threshold for hFac (nonlinFreeSurf only)*/
(PID.TID 0000.0001)                 2.000000000000000E-01
(PID.TID 0000.0001)     ;
(PID.TID 0000.0001) hFacSup =   /* upper threshold for hFac (nonlinFreeSurf only)*/
(PID.TID 0000.0001)                 2.000000000000000E+00
(PID.TID 0000.0001)     ;
(PID.TID 0000.0001) select_rStar = /* r* Vertical coord. options (=0 r coord.; > 0 uses r*) */
(PID.TID 0000.0001)                       0
(PID.TID 0000.0001)     ;
(PID.TID 0000.0001) selectAddFluid = /* option for mass source/sink of fluid (=0: off) */
(PID.TID 0000.0001)                       0
(PID.TID 0000.0001)     ;
(PID.TID 0000.0001) useRealFreshWaterFlux = /* Real Fresh Water Flux on/off flag*/
(PID.TID 0000.0001)                   F
(PID.TID 0000.0001)     ;
(PID.TID 0000.0001) temp_EvPrRn = /* Temp. of Evap/Prec/R (UNSET=use local T)(oC)*/
(PID.TID 0000.0001)                 1.234567000000000E+05
(PID.TID 0000.0001)     ;
(PID.TID 0000.0001) salt_EvPrRn = /* Salin. of Evap/Prec/R (UNSET=use local S)(ppt)*/
(PID.TID 0000.0001)                 0.000000000000000E+00
(PID.TID 0000.0001)     ;
(PID.TID 0000.0001) convertFW2Salt = /* convert F.W. Flux to Salt Flux (-1=use local S)(ppt)*/
(PID.TID 0000.0001)                 3.500000000000000E+01
(PID.TID 0000.0001)     ;
(PID.TID 0000.0001) use3Dsolver = /* use 3-D pressure solver on/off flag */
(PID.TID 0000.0001)                   F
(PID.TID 0000.0001)     ;
(PID.TID 0000.0001) nonHydrostatic =  /* Non-Hydrostatic on/off flag */
(PID.TID 0000.0001)                   F
(PID.TID 0000.0001)     ;
(PID.TID 0000.0001) nh_Am2 = /* Non-Hydrostatic terms scaling factor */
(PID.TID 0000.0001)                 1.000000000000000E+00
(PID.TID 0000.0001)     ;
(PID.TID 0000.0001) quasiHydrostatic = /* Quasi-Hydrostatic on/off flag */
(PID.TID 0000.0001)                   F
(PID.TID 0000.0001)     ;
(PID.TID 0000.0001) momStepping =  /* Momentum equation on/off flag */
(PID.TID 0000.0001)                   T
(PID.TID 0000.0001)     ;
(PID.TID 0000.0001) vectorInvariantMomentum= /* Vector-Invariant Momentum on/off */
(PID.TID 0000.0001)                   F
(PID.TID 0000.0001)     ;
(PID.TID 0000.0001) momAdvection =  /* Momentum advection on/off flag */
(PID.TID 0000.0001)                   T
(PID.TID 0000.0001)     ;
(PID.TID 0000.0001) momViscosity =  /* Momentum viscosity on/off flag */
(PID.TID 0000.0001)                   T
(PID.TID 0000.0001)     ;
(PID.TID 0000.0001) momImplVertAdv =/* Momentum implicit vert. advection on/off*/
(PID.TID 0000.0001)                   F
(PID.TID 0000.0001)     ;
(PID.TID 0000.0001) implicitViscosity = /* Implicit viscosity on/off flag */
(PID.TID 0000.0001)                   T
(PID.TID 0000.0001)     ;
(PID.TID 0000.0001) metricTerms =  /* metric-Terms on/off flag */
(PID.TID 0000.0001)                   T
(PID.TID 0000.0001)     ;
(PID.TID 0000.0001) useNHMTerms = /* Non-Hydrostatic Metric-Terms on/off */
(PID.TID 0000.0001)                   T
(PID.TID 0000.0001)     ;
(PID.TID 0000.0001) useConstantF =  /* use Constant f0 Coriolis flag */
(PID.TID 0000.0001)                   F
(PID.TID 0000.0001)     ;
(PID.TID 0000.0001) useBetaPlaneF = /* use Beta-Plane Coriolis flag */
(PID.TID 0000.0001)                   F
(PID.TID 0000.0001)     ;
(PID.TID 0000.0001) useSphereF  =   /* use Spherical Coriolis flag */
(PID.TID 0000.0001)                   T
(PID.TID 0000.0001)     ;
(PID.TID 0000.0001) use3dCoriolis = /* 3-D Coriolis on/off flag */
(PID.TID 0000.0001)                   F
(PID.TID 0000.0001)     ;
(PID.TID 0000.0001) useCoriolis =  /* Coriolis on/off flag */
(PID.TID 0000.0001)                   T
(PID.TID 0000.0001)     ;
(PID.TID 0000.0001) useCDscheme =  /* CD scheme on/off flag */
(PID.TID 0000.0001)                   T
(PID.TID 0000.0001)     ;
(PID.TID 0000.0001) useJamartWetPoints= /* Coriolis WetPoints method flag */
(PID.TID 0000.0001)                   F
(PID.TID 0000.0001)     ;
(PID.TID 0000.0001) useJamartMomAdv= /* V.I. Non-linear terms Jamart flag */
(PID.TID 0000.0001)                   F
(PID.TID 0000.0001)     ;
(PID.TID 0000.0001) useAbsVorticity= /* Work with f+zeta in Coriolis */
(PID.TID 0000.0001)                   F
(PID.TID 0000.0001)     ;
(PID.TID 0000.0001) selectVortScheme= /* Scheme selector for Vorticity-Term */
(PID.TID 0000.0001)               123456789
(PID.TID 0000.0001)    = 0 : enstrophy (Shallow-Water Eq.) conserving scheme by Sadourny, JAS 75
(PID.TID 0000.0001)    = 1 : same as 0 with modified hFac
(PID.TID 0000.0001)    = 2 : energy conserving scheme (used by Sadourny in JAS 75 paper)
(PID.TID 0000.0001)    = 3 : energy (general) and enstrophy (2D, nonDiv.) conserving scheme
(PID.TID 0000.0001)          from Sadourny (Burridge & Haseler, ECMWF Rep.4, 1977)
(PID.TID 0000.0001)     ;
(PID.TID 0000.0001) upwindVorticity= /* Upwind bias vorticity flag */
(PID.TID 0000.0001)                   F
(PID.TID 0000.0001)     ;
(PID.TID 0000.0001) highOrderVorticity= /* High order interp. of vort. flag */
(PID.TID 0000.0001)                   F
(PID.TID 0000.0001)     ;
(PID.TID 0000.0001) upwindShear= /* Upwind vertical Shear advection flag */
(PID.TID 0000.0001)                   F
(PID.TID 0000.0001)     ;
(PID.TID 0000.0001) selectKEscheme= /* Kinetic Energy scheme selector */
(PID.TID 0000.0001)                       0
(PID.TID 0000.0001)     ;
(PID.TID 0000.0001) momForcing =  /* Momentum forcing on/off flag */
(PID.TID 0000.0001)                   T
(PID.TID 0000.0001)     ;
(PID.TID 0000.0001) momPressureForcing =  /* Momentum pressure term on/off flag */
(PID.TID 0000.0001)                   T
(PID.TID 0000.0001)     ;
(PID.TID 0000.0001) implicitIntGravWave= /* Implicit Internal Gravity Wave flag */
(PID.TID 0000.0001)                   F
(PID.TID 0000.0001)     ;
(PID.TID 0000.0001) staggerTimeStep =   /* Stagger time stepping on/off flag */
(PID.TID 0000.0001)                   F
(PID.TID 0000.0001)     ;
(PID.TID 0000.0001) multiDimAdvection =   /* enable/disable Multi-Dim Advection */
(PID.TID 0000.0001)                   T
(PID.TID 0000.0001)     ;
(PID.TID 0000.0001) useMultiDimAdvec =   /* Multi-Dim Advection is/is-not used */
(PID.TID 0000.0001)                   F
(PID.TID 0000.0001)     ;
(PID.TID 0000.0001) implicitDiffusion =/* Implicit Diffusion on/off flag */
(PID.TID 0000.0001)                   T
(PID.TID 0000.0001)     ;
(PID.TID 0000.0001) tempStepping =  /* Temperature equation on/off flag */
(PID.TID 0000.0001)                   T
(PID.TID 0000.0001)     ;
(PID.TID 0000.0001) tempAdvection=  /* Temperature advection on/off flag */
(PID.TID 0000.0001)                   T
(PID.TID 0000.0001)     ;
(PID.TID 0000.0001) tempImplVertAdv =/* Temp. implicit vert. advection on/off */
(PID.TID 0000.0001)                   F
(PID.TID 0000.0001)     ;
(PID.TID 0000.0001) tempForcing  =  /* Temperature forcing on/off flag */
(PID.TID 0000.0001)                   T
(PID.TID 0000.0001)     ;
(PID.TID 0000.0001) tempIsActiveTr = /* Temp. is a dynamically Active Tracer */
(PID.TID 0000.0001)                   T
(PID.TID 0000.0001)     ;
(PID.TID 0000.0001) saltStepping =  /* Salinity equation on/off flag */
(PID.TID 0000.0001)                   T
(PID.TID 0000.0001)     ;
(PID.TID 0000.0001) saltAdvection=  /* Salinity advection on/off flag */
(PID.TID 0000.0001)                   T
(PID.TID 0000.0001)     ;
(PID.TID 0000.0001) saltImplVertAdv =/* Sali. implicit vert. advection on/off */
(PID.TID 0000.0001)                   F
(PID.TID 0000.0001)     ;
(PID.TID 0000.0001) saltForcing  =  /* Salinity forcing on/off flag */
(PID.TID 0000.0001)                   T
(PID.TID 0000.0001)     ;
(PID.TID 0000.0001) saltIsActiveTr = /* Salt  is a dynamically Active Tracer */
(PID.TID 0000.0001)                   T
(PID.TID 0000.0001)     ;
(PID.TID 0000.0001)  readBinaryPrec = /* Precision used for reading binary files */
(PID.TID 0000.0001)                      32
(PID.TID 0000.0001)     ;
(PID.TID 0000.0001) writeBinaryPrec = /* Precision used for writing binary files */
(PID.TID 0000.0001)                      32
(PID.TID 0000.0001)     ;
(PID.TID 0000.0001)  globalFiles = /* write "global" (=not per tile) files */
(PID.TID 0000.0001)                   F
(PID.TID 0000.0001)     ;
(PID.TID 0000.0001)  useSingleCpuIO = /* only master MPI process does I/O */
(PID.TID 0000.0001)                   F
(PID.TID 0000.0001)     ;
(PID.TID 0000.0001)  debugMode  =  /* Debug Mode on/off flag */
(PID.TID 0000.0001)                   F
(PID.TID 0000.0001)     ;
(PID.TID 0000.0001)    debLevA  =  /* 1rst level of debugging */
(PID.TID 0000.0001)                       1
(PID.TID 0000.0001)     ;
(PID.TID 0000.0001)    debLevB  =  /* 2nd  level of debugging */
(PID.TID 0000.0001)                       2
(PID.TID 0000.0001)     ;
(PID.TID 0000.0001)  debugLevel =  /* select debugging level */
(PID.TID 0000.0001)                       1
(PID.TID 0000.0001)     ;
(PID.TID 0000.0001) //
(PID.TID 0000.0001) // Elliptic solver(s) paramters ( PARM02 in namelist )
(PID.TID 0000.0001) //
(PID.TID 0000.0001) cg2dMaxIters =   /* Upper limit on 2d con. grad iterations  */
(PID.TID 0000.0001)                    1000
(PID.TID 0000.0001)     ;
(PID.TID 0000.0001) cg2dChkResFreq =   /* 2d con. grad convergence test frequency */
(PID.TID 0000.0001)                       1
(PID.TID 0000.0001)     ;
(PID.TID 0000.0001) cg2dTargetResidual =   /* 2d con. grad target residual  */
(PID.TID 0000.0001)                 1.000000000000000E-13
(PID.TID 0000.0001)     ;
(PID.TID 0000.0001) cg2dTargetResWunit =   /* CG2d target residual [W units] */
(PID.TID 0000.0001)                -1.000000000000000E+00
(PID.TID 0000.0001)     ;
(PID.TID 0000.0001) cg2dPreCondFreq =   /* Freq. for updating cg2d preconditioner */
(PID.TID 0000.0001)                       1
(PID.TID 0000.0001)     ;
(PID.TID 0000.0001) //
(PID.TID 0000.0001) // Time stepping paramters ( PARM03 in namelist )
(PID.TID 0000.0001) //
(PID.TID 0000.0001) deltaTmom =   /* Momentum equation timestep ( s ) */
(PID.TID 0000.0001)                 3.600000000000000E+03
(PID.TID 0000.0001)     ;
(PID.TID 0000.0001) deltaTfreesurf = /* FreeSurface equation timestep ( s ) */
(PID.TID 0000.0001)                 3.600000000000000E+03
(PID.TID 0000.0001)     ;
(PID.TID 0000.0001) dTtracerLev =  /* Tracer equation timestep ( s ) */
(PID.TID 0000.0001)    23 @  3.600000000000000E+03              /* K =  1: 23 */
(PID.TID 0000.0001)     ;
(PID.TID 0000.0001) deltaTClock  =   /* Model clock timestep ( s ) */
(PID.TID 0000.0001)                 3.600000000000000E+03
(PID.TID 0000.0001)     ;
(PID.TID 0000.0001) cAdjFreq =   /* Convective adjustment interval ( s ) */
(PID.TID 0000.0001)                 0.000000000000000E+00
(PID.TID 0000.0001)     ;
(PID.TID 0000.0001) momForcingOutAB = /* =1: take Momentum Forcing out of Adams-Bash. stepping */
(PID.TID 0000.0001)                       0
(PID.TID 0000.0001)     ;
(PID.TID 0000.0001) tracForcingOutAB = /* =1: take T,S,pTr Forcing out of Adams-Bash. stepping */
(PID.TID 0000.0001)                       0
(PID.TID 0000.0001)     ;
(PID.TID 0000.0001) momDissip_In_AB = /* put Dissipation Tendency in Adams-Bash. stepping */
(PID.TID 0000.0001)                   T
(PID.TID 0000.0001)     ;
(PID.TID 0000.0001) doAB_onGtGs = /* apply AB on Tendencies (rather than on T,S)*/
(PID.TID 0000.0001)                   T
(PID.TID 0000.0001)     ;
(PID.TID 0000.0001) abEps =   /* Adams-Bashforth-2 stabilizing weight */
(PID.TID 0000.0001)                 1.000000000000000E-01
(PID.TID 0000.0001)     ;
(PID.TID 0000.0001) tauCD =   /* CD coupling time-scale ( s ) */
(PID.TID 0000.0001)                 1.728000000000000E+05
(PID.TID 0000.0001)     ;
(PID.TID 0000.0001) rCD =   /* Normalised CD coupling parameter */
(PID.TID 0000.0001)                 9.791666666666666E-01
(PID.TID 0000.0001)     ;
(PID.TID 0000.0001) epsAB_CD = /* AB-2 stabilizing weight for CD-scheme*/
(PID.TID 0000.0001)                 1.000000000000000E-01
(PID.TID 0000.0001)     ;
(PID.TID 0000.0001) pickupStrictlyMatch= /* stop if pickup do not strictly match */
(PID.TID 0000.0001)                   T
(PID.TID 0000.0001)     ;
(PID.TID 0000.0001) nIter0 =   /* Run starting timestep number  */
(PID.TID 0000.0001)                       0
(PID.TID 0000.0001)     ;
(PID.TID 0000.0001) nTimeSteps =   /* Number of timesteps */
(PID.TID 0000.0001)                      20
(PID.TID 0000.0001)     ;
(PID.TID 0000.0001) baseTime =   /* Model base time ( s ). */
(PID.TID 0000.0001)                 2.160000000000000E+04
(PID.TID 0000.0001)     ;
(PID.TID 0000.0001) startTime =   /* Run start time ( s ). */
(PID.TID 0000.0001)                 2.160000000000000E+04
(PID.TID 0000.0001)     ;
(PID.TID 0000.0001) endTime =   /* Integration ending time ( s ). */
(PID.TID 0000.0001)                 9.360000000000000E+04
(PID.TID 0000.0001)     ;
(PID.TID 0000.0001) pChkPtFreq =   /* Permanent restart/checkpoint file interval ( s ). */
(PID.TID 0000.0001)                 0.000000000000000E+00
(PID.TID 0000.0001)     ;
(PID.TID 0000.0001) chkPtFreq =   /* Rolling restart/checkpoint file interval ( s ). */
(PID.TID 0000.0001)                 0.000000000000000E+00
(PID.TID 0000.0001)     ;
(PID.TID 0000.0001) pickup_write_mdsio =   /* Model IO flag. */
(PID.TID 0000.0001)                   T
(PID.TID 0000.0001)     ;
(PID.TID 0000.0001) pickup_read_mdsio =   /* Model IO flag. */
(PID.TID 0000.0001)                   T
(PID.TID 0000.0001)     ;
(PID.TID 0000.0001) pickup_write_immed =   /* Model IO flag. */
(PID.TID 0000.0001)                   F
(PID.TID 0000.0001)     ;
(PID.TID 0000.0001) writePickupAtEnd =   /* Model IO flag. */
(PID.TID 0000.0001)                   T
(PID.TID 0000.0001)     ;
(PID.TID 0000.0001) dumpFreq =   /* Model state write out interval ( s ). */
(PID.TID 0000.0001)                 8.640000000000000E+04
(PID.TID 0000.0001)     ;
(PID.TID 0000.0001) dumpInitAndLast= /* write out Initial & Last iter. model state */
(PID.TID 0000.0001)                   T
(PID.TID 0000.0001)     ;
(PID.TID 0000.0001) snapshot_mdsio =   /* Model IO flag. */
(PID.TID 0000.0001)                   T
(PID.TID 0000.0001)     ;
(PID.TID 0000.0001) monitorFreq =   /* Monitor output interval ( s ). */
(PID.TID 0000.0001)                 1.000000000000000E+00
(PID.TID 0000.0001)     ;
(PID.TID 0000.0001) monitorSelect = /* select group of variables to monitor */
(PID.TID 0000.0001)                       3
(PID.TID 0000.0001)     ;
(PID.TID 0000.0001) monitor_stdio =   /* Model IO flag. */
(PID.TID 0000.0001)                   T
(PID.TID 0000.0001)     ;
(PID.TID 0000.0001) externForcingPeriod =   /* forcing period (s) */
(PID.TID 0000.0001)                 4.320000000000000E+04
(PID.TID 0000.0001)     ;
(PID.TID 0000.0001) externForcingCycle =   /* period of the cyle (s). */
(PID.TID 0000.0001)                 2.764800000000000E+06
(PID.TID 0000.0001)     ;
(PID.TID 0000.0001) tauThetaClimRelax =   /* relaxation time scale (s) */
(PID.TID 0000.0001)                 2.592000000000000E+06
(PID.TID 0000.0001)     ;
(PID.TID 0000.0001) tauSaltClimRelax =   /* relaxation time scale (s) */
(PID.TID 0000.0001)                 2.592000000000000E+06
(PID.TID 0000.0001)     ;
(PID.TID 0000.0001) latBandClimRelax =   /* max. Lat. where relaxation */
(PID.TID 0000.0001)                 1.800000000000000E+02
(PID.TID 0000.0001)     ;
(PID.TID 0000.0001) //
(PID.TID 0000.0001) // Gridding paramters ( PARM04 in namelist )
(PID.TID 0000.0001) //
(PID.TID 0000.0001) usingCartesianGrid = /* Cartesian coordinates flag ( True/False ) */
(PID.TID 0000.0001)                   F
(PID.TID 0000.0001)     ;
(PID.TID 0000.0001) usingCylindricalGrid = /* Cylindrical coordinates flag ( True/False ) */
(PID.TID 0000.0001)                   F
(PID.TID 0000.0001)     ;
(PID.TID 0000.0001) usingSphericalPolarGrid = /* Spherical coordinates flag ( True/False ) */
(PID.TID 0000.0001)                   T
(PID.TID 0000.0001)     ;
(PID.TID 0000.0001) usingCurvilinearGrid = /* Curvilinear coordinates flag ( True/False ) */
(PID.TID 0000.0001)                   F
(PID.TID 0000.0001)     ;
(PID.TID 0000.0001) Ro_SeaLevel = /* r(1) ( units of r ==  m ) */
(PID.TID 0000.0001)                 0.000000000000000E+00
(PID.TID 0000.0001)     ;
(PID.TID 0000.0001) rkSign =   /* index orientation relative to vertical coordinate */
(PID.TID 0000.0001)                -1.000000000000000E+00
(PID.TID 0000.0001)     ;
(PID.TID 0000.0001) gravitySign = /* gravity orientation relative to vertical coordinate */
(PID.TID 0000.0001)                -1.000000000000000E+00
(PID.TID 0000.0001)     ;
(PID.TID 0000.0001) mass2rUnit = /* convert mass per unit area [kg/m2] to r-units [m] */
(PID.TID 0000.0001)                 1.000200040008002E-03
(PID.TID 0000.0001)     ;
(PID.TID 0000.0001) rUnit2mass = /* convert r-units [m] to mass per unit area [kg/m2] */
(PID.TID 0000.0001)                 9.998000000000000E+02
(PID.TID 0000.0001)     ;
(PID.TID 0000.0001) drC =   /* C spacing ( units of r ) */
(PID.TID 0000.0001)                 5.000000000000000E+00,      /* K =  1 */
(PID.TID 0000.0001)                 1.000000000000000E+01,      /* K =  2 */
(PID.TID 0000.0001)                 1.250000000000000E+01,      /* K =  3 */
(PID.TID 0000.0001)                 1.750000000000000E+01,      /* K =  4 */
(PID.TID 0000.0001)                 2.000000000000000E+01,      /* K =  5 */
(PID.TID 0000.0001)                 2.250000000000000E+01,      /* K =  6 */
(PID.TID 0000.0001)                 3.000000000000000E+01,      /* K =  7 */
(PID.TID 0000.0001)                 4.250000000000000E+01,      /* K =  8 */
(PID.TID 0000.0001)                 6.250000000000000E+01,      /* K =  9 */
(PID.TID 0000.0001)                 8.750000000000000E+01,      /* K = 10 */
(PID.TID 0000.0001)                 1.250000000000000E+02,      /* K = 11 */
(PID.TID 0000.0001)                 1.750000000000000E+02,      /* K = 12 */
(PID.TID 0000.0001)                 2.375000000000000E+02,      /* K = 13 */
(PID.TID 0000.0001)                 3.125000000000000E+02,      /* K = 14 */
(PID.TID 0000.0001)                 3.825000000000000E+02,      /* K = 15 */
(PID.TID 0000.0001)                 4.325000000000000E+02,      /* K = 16 */
(PID.TID 0000.0001)                 4.750000000000000E+02,      /* K = 17 */
(PID.TID 0000.0001)     6 @  5.000000000000000E+02              /* K = 18: 23 */
(PID.TID 0000.0001)     ;
(PID.TID 0000.0001) drF =   /* W spacing ( units of r ) */
(PID.TID 0000.0001)     2 @  1.000000000000000E+01,             /* K =  1:  2 */
(PID.TID 0000.0001)                 1.500000000000000E+01,      /* K =  3 */
(PID.TID 0000.0001)     2 @  2.000000000000000E+01,             /* K =  4:  5 */
(PID.TID 0000.0001)                 2.500000000000000E+01,      /* K =  6 */
(PID.TID 0000.0001)                 3.500000000000000E+01,      /* K =  7 */
(PID.TID 0000.0001)                 5.000000000000000E+01,      /* K =  8 */
(PID.TID 0000.0001)                 7.500000000000000E+01,      /* K =  9 */
(PID.TID 0000.0001)                 1.000000000000000E+02,      /* K = 10 */
(PID.TID 0000.0001)                 1.500000000000000E+02,      /* K = 11 */
(PID.TID 0000.0001)                 2.000000000000000E+02,      /* K = 12 */
(PID.TID 0000.0001)                 2.750000000000000E+02,      /* K = 13 */
(PID.TID 0000.0001)                 3.500000000000000E+02,      /* K = 14 */
(PID.TID 0000.0001)                 4.150000000000000E+02,      /* K = 15 */
(PID.TID 0000.0001)                 4.500000000000000E+02,      /* K = 16 */
(PID.TID 0000.0001)     7 @  5.000000000000000E+02              /* K = 17: 23 */
(PID.TID 0000.0001)     ;
(PID.TID 0000.0001) delX = /* U spacing ( m - cartesian, degrees - spherical ) */
(PID.TID 0000.0001)    20 @  2.000000000000000E+00              /* I =  1: 20 */
(PID.TID 0000.0001)     ;
(PID.TID 0000.0001) delY = /* V spacing ( m - cartesian, degrees - spherical ) */
(PID.TID 0000.0001)    16 @  2.000000000000000E+00              /* J =  1: 16 */
(PID.TID 0000.0001)     ;
(PID.TID 0000.0001) xgOrigin = /* X-axis origin of West  edge (cartesian: m, lat-lon: deg.) */
(PID.TID 0000.0001)                -4.200000000000000E+01
(PID.TID 0000.0001)     ;
(PID.TID 0000.0001) ygOrigin = /* Y-axis origin of South edge (cartesian: m, lat-lon: deg.) */
(PID.TID 0000.0001)                 1.000000000000000E+01
(PID.TID 0000.0001)     ;
(PID.TID 0000.0001) rSphere =  /* Radius ( ignored - cartesian, m - spherical ) */
(PID.TID 0000.0001)                 6.370000000000000E+06
(PID.TID 0000.0001)     ;
(PID.TID 0000.0001) deepAtmosphere = /* Deep/Shallow Atmosphere flag (True/False) */
(PID.TID 0000.0001)                   F
(PID.TID 0000.0001)     ;
(PID.TID 0000.0001) xC =  /* xC(:,1,:,1) : P-point X coord ( deg. or m if cartesian) */
(PID.TID 0000.0001)                -4.100000000000000E+01,      /* I =  1 */
(PID.TID 0000.0001)                -3.900000000000000E+01,      /* I =  2 */
(PID.TID 0000.0001)                -3.700000000000000E+01,      /* I =  3 */
(PID.TID 0000.0001)                -3.500000000000000E+01,      /* I =  4 */
(PID.TID 0000.0001)                -3.300000000000000E+01,      /* I =  5 */
(PID.TID 0000.0001)                -3.100000000000000E+01,      /* I =  6 */
(PID.TID 0000.0001)                -2.900000000000000E+01,      /* I =  7 */
(PID.TID 0000.0001)                -2.700000000000000E+01,      /* I =  8 */
(PID.TID 0000.0001)                -2.500000000000000E+01,      /* I =  9 */
(PID.TID 0000.0001)                -2.300000000000000E+01,      /* I = 10 */
(PID.TID 0000.0001)                -2.100000000000000E+01,      /* I = 11 */
(PID.TID 0000.0001)                -1.900000000000000E+01,      /* I = 12 */
(PID.TID 0000.0001)                -1.700000000000000E+01,      /* I = 13 */
(PID.TID 0000.0001)                -1.500000000000000E+01,      /* I = 14 */
(PID.TID 0000.0001)                -1.300000000000000E+01,      /* I = 15 */
(PID.TID 0000.0001)                -1.100000000000000E+01,      /* I = 16 */
(PID.TID 0000.0001)                -9.000000000000000E+00,      /* I = 17 */
(PID.TID 0000.0001)                -7.000000000000000E+00,      /* I = 18 */
(PID.TID 0000.0001)                -5.000000000000000E+00,      /* I = 19 */
(PID.TID 0000.0001)                -3.000000000000000E+00       /* I = 20 */
(PID.TID 0000.0001)     ;
(PID.TID 0000.0001) yC =  /* yC(1,:,1,:) : P-point Y coord ( deg. or m if cartesian) */
(PID.TID 0000.0001)                 1.100000000000000E+01,      /* J =  1 */
(PID.TID 0000.0001)                 1.300000000000000E+01,      /* J =  2 */
(PID.TID 0000.0001)                 1.500000000000000E+01,      /* J =  3 */
(PID.TID 0000.0001)                 1.700000000000000E+01,      /* J =  4 */
(PID.TID 0000.0001)                 1.900000000000000E+01,      /* J =  5 */
[...]
(PID.TID 0000.0001) %MON dynstat_wvel_del2            =   4.4338767399516E-06
(PID.TID 0000.0001) %MON dynstat_theta_max            =   2.6159332930447E+01
(PID.TID 0000.0001) %MON dynstat_theta_min            =   1.8064725972102E+00
(PID.TID 0000.0001) %MON dynstat_theta_mean           =   5.4787056116064E+00
(PID.TID 0000.0001) %MON dynstat_theta_sd             =   4.5933673590726E+00
(PID.TID 0000.0001) %MON dynstat_theta_del2           =   5.1208824052600E-02
(PID.TID 0000.0001) %MON dynstat_salt_max             =   3.7405888934497E+01
(PID.TID 0000.0001) %MON dynstat_salt_min             =   3.4726840700490E+01
(PID.TID 0000.0001) %MON dynstat_salt_mean            =   3.5157577392839E+01
(PID.TID 0000.0001) %MON dynstat_salt_sd              =   4.1382098461872E-01
(PID.TID 0000.0001) %MON dynstat_salt_del2            =   1.2650484369662E-02
(PID.TID 0000.0001) %MON extforcing_qnet_max          =   5.5814346313477E+01
(PID.TID 0000.0001) %MON extforcing_qnet_min          =  -1.7021042633057E+02
(PID.TID 0000.0001) %MON extforcing_qnet_mean         =  -6.8873210229999E+01
(PID.TID 0000.0001) %MON extforcing_qnet_sd           =   4.9775139382117E+01
(PID.TID 0000.0001) %MON extforcing_qnet_del2         =   7.7450188603894E+00
(PID.TID 0000.0001) %MON extforcing_qsw_max           =  -1.3156417846680E+02
(PID.TID 0000.0001) %MON extforcing_qsw_min           =  -3.1702488708496E+02
(PID.TID 0000.0001) %MON extforcing_qsw_mean          =  -2.5227013325255E+02
(PID.TID 0000.0001) %MON extforcing_qsw_sd            =   4.1801383341981E+01
(PID.TID 0000.0001) %MON extforcing_qsw_del2          =   5.2682711408643E+00
(PID.TID 0000.0001) %MON extforcing_empmr_max         =   6.9994715302357E-05
(PID.TID 0000.0001) %MON extforcing_empmr_min         =   1.4408303785096E-05
(PID.TID 0000.0001) %MON extforcing_empmr_mean        =   4.3942400177846E-05
(PID.TID 0000.0001) %MON extforcing_empmr_sd          =   1.1599098392661E-05
(PID.TID 0000.0001) %MON extforcing_empmr_del2        =   2.3051954866864E-06
(PID.TID 0000.0001) %MON advcfl_uvel_max              =   3.4773992899322E-03
(PID.TID 0000.0001) %MON advcfl_vvel_max              =   1.8848537310047E-03
(PID.TID 0000.0001) %MON advcfl_wvel_max              =   4.7384093757278E-03
(PID.TID 0000.0001) %MON advcfl_W_hf_max              =   5.9230117196598E-03
(PID.TID 0000.0001) %MON pe_b_mean                    =   6.9556103110076E-06
(PID.TID 0000.0001) %MON ke_max                       =   2.3377015268618E-02
(PID.TID 0000.0001) %MON ke_mean                      =   4.2617787925193E-05
(PID.TID 0000.0001) %MON ke_vol                       =   3.6027486600263E+16
(PID.TID 0000.0001) %MON vort_r_min                   =  -3.7478972891143E-07
(PID.TID 0000.0001) %MON vort_r_max                   =   7.3068203200348E-07
(PID.TID 0000.0001) %MON vort_a_mean                  =   6.2114138811197E-05
(PID.TID 0000.0001) %MON vort_a_sd                    =   1.9250213220761E-05
(PID.TID 0000.0001) %MON vort_p_mean                  =   7.8095197769436E-05
(PID.TID 0000.0001) %MON vort_p_sd                    =   5.6522129316888E-05
(PID.TID 0000.0001) %MON surfExpan_theta_mean         =  -1.3978562350376E-07
(PID.TID 0000.0001) %MON surfExpan_salt_mean          =   3.4903454139757E-09
(PID.TID 0000.0001) // =======================================================
(PID.TID 0000.0001) // End MONITOR dynamic field statistics
(PID.TID 0000.0001) // =======================================================
time,SST,SSS,fu,fv,Q,E-P,i0,i1,a,b =   9.0000E+04  0.0000E+00  0.0000E+00  0.0000E+00  0.0000E+00  0.0000E+00  0.0000E+00     2     3  5.8333E-01  4.1667E-01
time,fu0,fu1,fu =   9.0000E+04  0.0000E+00  0.0000E+00  0.0000E+00  5.833333333333334E-01  4.166666666666666E-01
 cg2d: Sum(rhs),rhsMax =   3.10862446895044E-14  5.38227397471858E-01
(PID.TID 0000.0001)                    cg2d_init_res =    5.89757733851706E-02
(PID.TID 0000.0001)                       cg2d_iters =    44
(PID.TID 0000.0001)                         cg2d_res =    9.50262338546233E-14
(PID.TID 0000.0001) // =======================================================
(PID.TID 0000.0001) // Begin MONITOR dynamic field statistics
(PID.TID 0000.0001) // =======================================================
(PID.TID 0000.0001) %MON time_tsnumber                =                    20
(PID.TID 0000.0001) %MON time_secondsf                =   9.3600000000000E+04
(PID.TID 0000.0001) %MON dynstat_eta_max              =   1.4945425989267E-01
(PID.TID 0000.0001) %MON dynstat_eta_min              =  -2.1789713504750E-01
(PID.TID 0000.0001) %MON dynstat_eta_mean             =  -1.8199393959950E-16
(PID.TID 0000.0001) %MON dynstat_eta_sd               =   7.5851913352188E-02
(PID.TID 0000.0001) %MON dynstat_eta_del2             =   4.7778023406559E-03
(PID.TID 0000.0001) %MON dynstat_uvel_max             =   2.8029413177271E-02
(PID.TID 0000.0001) %MON dynstat_uvel_min             =  -2.0342878973581E-01
(PID.TID 0000.0001) %MON dynstat_uvel_mean            =  -5.5301320980675E-05
(PID.TID 0000.0001) %MON dynstat_uvel_sd              =   7.8016783328866E-03
(PID.TID 0000.0001) %MON dynstat_uvel_del2            =   2.0806624687465E-03
(PID.TID 0000.0001) %MON dynstat_vvel_max             =   1.2298750713899E-01
(PID.TID 0000.0001) %MON dynstat_vvel_min             =  -1.1094364210905E-01
(PID.TID 0000.0001) %MON dynstat_vvel_mean            =   5.0019411387616E-05
(PID.TID 0000.0001) %MON dynstat_vvel_sd              =   5.4538770948320E-03
(PID.TID 0000.0001) %MON dynstat_vvel_del2            =   1.7639275583719E-03
(PID.TID 0000.0001) %MON dynstat_wvel_max             =   6.2036072710504E-05
(PID.TID 0000.0001) %MON dynstat_wvel_min             =  -1.5890151270189E-04
(PID.TID 0000.0001) %MON dynstat_wvel_mean            =  -5.6273935961672E-22
(PID.TID 0000.0001) %MON dynstat_wvel_sd              =   2.0830253222593E-05
(PID.TID 0000.0001) %MON dynstat_wvel_del2            =   4.3436936797639E-06
(PID.TID 0000.0001) %MON dynstat_theta_max            =   2.6165173499014E+01
(PID.TID 0000.0001) %MON dynstat_theta_min            =   1.8064755649226E+00
(PID.TID 0000.0001) %MON dynstat_theta_mean           =   5.4787208341520E+00
(PID.TID 0000.0001) %MON dynstat_theta_sd             =   4.5934172756644E+00
(PID.TID 0000.0001) %MON dynstat_theta_del2           =   5.1264806572463E-02
(PID.TID 0000.0001) %MON dynstat_salt_max             =   3.7406255805862E+01
(PID.TID 0000.0001) %MON dynstat_salt_min             =   3.4726848060388E+01
(PID.TID 0000.0001) %MON dynstat_salt_mean            =   3.5157578794032E+01
(PID.TID 0000.0001) %MON dynstat_salt_sd              =   4.1382447437800E-01
(PID.TID 0000.0001) %MON dynstat_salt_del2            =   1.2651277196517E-02
(PID.TID 0000.0001) %MON extforcing_qnet_max          =   5.7280787150065E+01
(PID.TID 0000.0001) %MON extforcing_qnet_min          =  -1.7148053487142E+02
(PID.TID 0000.0001) %MON extforcing_qnet_mean         =  -6.7917534930019E+01
(PID.TID 0000.0001) %MON extforcing_qnet_sd           =   4.9562900759258E+01
(PID.TID 0000.0001) %MON extforcing_qnet_del2         =   7.7331181872263E+00
(PID.TID 0000.0001) %MON extforcing_qsw_max           =  -1.3106833394368E+02
(PID.TID 0000.0001) %MON extforcing_qsw_min           =  -3.1762956492106E+02
(PID.TID 0000.0001) %MON extforcing_qsw_mean          =  -2.5271815664967E+02
(PID.TID 0000.0001) %MON extforcing_qsw_sd            =   4.1764415005147E+01
(PID.TID 0000.0001) %MON extforcing_qsw_del2          =   5.2155629425800E+00
(PID.TID 0000.0001) %MON extforcing_empmr_max         =   7.0559226872765E-05
(PID.TID 0000.0001) %MON extforcing_empmr_min         =   1.4493037263907E-05
(PID.TID 0000.0001) %MON extforcing_empmr_mean        =   4.4363672689087E-05
(PID.TID 0000.0001) %MON extforcing_empmr_sd          =   1.1610819012107E-05
(PID.TID 0000.0001) %MON extforcing_empmr_del2        =   2.3117338043803E-06
(PID.TID 0000.0001) %MON advcfl_uvel_max              =   3.4097641665346E-03
(PID.TID 0000.0001) %MON advcfl_vvel_max              =   1.9912083462196E-03
(PID.TID 0000.0001) %MON advcfl_wvel_max              =   4.7908696904826E-03
(PID.TID 0000.0001) %MON advcfl_W_hf_max              =   5.9885871131033E-03
(PID.TID 0000.0001) %MON pe_b_mean                    =   6.9352989814240E-06
(PID.TID 0000.0001) %MON ke_max                       =   2.2961016139016E-02
(PID.TID 0000.0001) %MON ke_mean                      =   4.0474259470597E-05
(PID.TID 0000.0001) %MON ke_vol                       =   3.6027486600263E+16
(PID.TID 0000.0001) %MON vort_r_min                   =  -3.6544020249278E-07
(PID.TID 0000.0001) %MON vort_r_max                   =   7.1509891211556E-07
(PID.TID 0000.0001) %MON vort_a_mean                  =   6.2114138811197E-05
(PID.TID 0000.0001) %MON vort_a_sd                    =   1.9250208251092E-05
(PID.TID 0000.0001) %MON vort_p_mean                  =   7.8095197769435E-05
(PID.TID 0000.0001) %MON vort_p_sd                    =   5.6522658834244E-05
(PID.TID 0000.0001) %MON surfExpan_theta_mean         =  -3.4003543381766E-07
(PID.TID 0000.0001) %MON surfExpan_salt_mean          =   3.1937147794489E-08
(PID.TID 0000.0001) // =======================================================
(PID.TID 0000.0001) // End MONITOR dynamic field statistics
(PID.TID 0000.0001) // =======================================================
(PID.TID 0000.0001) %CHECKPOINT        20 ckptA
(PID.TID 0000.0001)   Seconds in section "ALL                    [THE_MODEL_MAIN]":
(PID.TID 0000.0001)           User time:  6.27304585
(PID.TID 0000.0001)         System time:  0.144977994
(PID.TID 0000.0001)     Wall clock time:  6.64990211
(PID.TID 0000.0001)          No. starts: 1
(PID.TID 0000.0001)           No. stops: 1
(PID.TID 0000.0001)   Seconds in section "INITIALISE_FIXED       [THE_MODEL_MAIN]":
(PID.TID 0000.0001)           User time:  0.384942003
(PID.TID 0000.0001)         System time:  0.0469929988
(PID.TID 0000.0001)     Wall clock time:  0.564157963
(PID.TID 0000.0001)          No. starts: 1
(PID.TID 0000.0001)           No. stops: 1
(PID.TID 0000.0001)   Seconds in section "THE_MAIN_LOOP          [THE_MODEL_MAIN]":
(PID.TID 0000.0001)           User time:  5.88810384
(PID.TID 0000.0001)         System time:  0.0979849957
(PID.TID 0000.0001)     Wall clock time:  6.08557916
(PID.TID 0000.0001)          No. starts: 1
(PID.TID 0000.0001)           No. stops: 1
(PID.TID 0000.0001)   Seconds in section "INITIALISE_VARIA    [THE_MAIN_LOOP]":
(PID.TID 0000.0001)           User time:  0.0809870064
(PID.TID 0000.0001)         System time:  0.0129980035
(PID.TID 0000.0001)     Wall clock time:  0.182874203
(PID.TID 0000.0001)          No. starts: 1
(PID.TID 0000.0001)           No. stops: 1
(PID.TID 0000.0001)   Seconds in section "MAIN LOOP           [THE_MAIN_LOOP]":
(PID.TID 0000.0001)           User time:  5.80711684
(PID.TID 0000.0001)         System time:  0.0849869922
(PID.TID 0000.0001)     Wall clock time:  5.90258288
(PID.TID 0000.0001)          No. starts: 1
(PID.TID 0000.0001)           No. stops: 1
(PID.TID 0000.0001)   Seconds in section "FORWARD_STEP        [THE_MAIN_LOOP]":
(PID.TID 0000.0001)           User time:  5.80711684
(PID.TID 0000.0001)         System time:  0.0849869922
(PID.TID 0000.0001)     Wall clock time:  5.90169573
(PID.TID 0000.0001)          No. starts: 20
(PID.TID 0000.0001)           No. stops: 20
(PID.TID 0000.0001)   Seconds in section "DO_STATEVARS_DIAGS  [FORWARD_STEP]":
(PID.TID 0000.0001)           User time:  0.000999927521
(PID.TID 0000.0001)         System time:  0.
(PID.TID 0000.0001)     Wall clock time:  0.00222539902
(PID.TID 0000.0001)          No. starts: 40
(PID.TID 0000.0001)           No. stops: 40
(PID.TID 0000.0001)   Seconds in section "LOAD_FIELDS_DRIVER  [FORWARD_STEP]":
(PID.TID 0000.0001)           User time:  0.0169962049
(PID.TID 0000.0001)         System time:  0.0029989928
(PID.TID 0000.0001)     Wall clock time:  0.0201926231
(PID.TID 0000.0001)          No. starts: 20
(PID.TID 0000.0001)           No. stops: 20
(PID.TID 0000.0001)   Seconds in section "EXTERNAL_FLDS_LOAD [LOAD_FLDS_DRIVER]":
(PID.TID 0000.0001)           User time:  0.0169962049
(PID.TID 0000.0001)         System time:  0.0029989928
(PID.TID 0000.0001)     Wall clock time:  0.0186042786
(PID.TID 0000.0001)          No. starts: 20
(PID.TID 0000.0001)           No. stops: 20
(PID.TID 0000.0001)   Seconds in section "DO_ATMOSPHERIC_PHYS [FORWARD_STEP]":
(PID.TID 0000.0001)           User time:  0.
(PID.TID 0000.0001)         System time:  0.
(PID.TID 0000.0001)     Wall clock time:  0.000783205032
(PID.TID 0000.0001)          No. starts: 20
(PID.TID 0000.0001)           No. stops: 20
(PID.TID 0000.0001)   Seconds in section "DO_OCEANIC_PHYS     [FORWARD_STEP]":
(PID.TID 0000.0001)           User time:  1.49477473
(PID.TID 0000.0001)         System time:  0.0059980154
(PID.TID 0000.0001)     Wall clock time:  1.50415754
(PID.TID 0000.0001)          No. starts: 20
(PID.TID 0000.0001)           No. stops: 20
(PID.TID 0000.0001)   Seconds in section "KPP_CALC [DO_OCEANIC_PHYS]":
(PID.TID 0000.0001)           User time:  1.39578825
(PID.TID 0000.0001)         System time:  0.0059980154
(PID.TID 0000.0001)     Wall clock time:  1.40265274
(PID.TID 0000.0001)          No. starts: 80
(PID.TID 0000.0001)           No. stops: 80
(PID.TID 0000.0001)   Seconds in section "THERMODYNAMICS      [FORWARD_STEP]":
(PID.TID 0000.0001)           User time:  1.07383764
(PID.TID 0000.0001)         System time:  0.00799998641
(PID.TID 0000.0001)     Wall clock time:  1.08325648
(PID.TID 0000.0001)          No. starts: 20
(PID.TID 0000.0001)           No. stops: 20
(PID.TID 0000.0001)   Seconds in section "DYNAMICS            [FORWARD_STEP]":
(PID.TID 0000.0001)           User time:  2.31164813
(PID.TID 0000.0001)         System time:  0.0129990131
(PID.TID 0000.0001)     Wall clock time:  2.32712364
(PID.TID 0000.0001)          No. starts: 20
(PID.TID 0000.0001)           No. stops: 20
(PID.TID 0000.0001)   Seconds in section "SOLVE_FOR_PRESSURE  [FORWARD_STEP]":
(PID.TID 0000.0001)           User time:  0.159972727
(PID.TID 0000.0001)         System time:  0.000999994576
(PID.TID 0000.0001)     Wall clock time:  0.159987688
(PID.TID 0000.0001)          No. starts: 20
(PID.TID 0000.0001)           No. stops: 20
(PID.TID 0000.0001)   Seconds in section "MOM_CORRECTION_STEP [FORWARD_STEP]":
(PID.TID 0000.0001)           User time:  0.0799910426
(PID.TID 0000.0001)         System time:  0.
(PID.TID 0000.0001)     Wall clock time:  0.0814740658
(PID.TID 0000.0001)          No. starts: 20
(PID.TID 0000.0001)           No. stops: 20
(PID.TID 0000.0001)   Seconds in section "TRC_CORRECTION_STEP [FORWARD_STEP]":
(PID.TID 0000.0001)           User time:  0.0339932442
(PID.TID 0000.0001)         System time:  0.
(PID.TID 0000.0001)     Wall clock time:  0.0340323448
(PID.TID 0000.0001)          No. starts: 20
(PID.TID 0000.0001)           No. stops: 20
(PID.TID 0000.0001)   Seconds in section "BLOCKING_EXCHANGES  [FORWARD_STEP]":
(PID.TID 0000.0001)           User time:  0.181972682
(PID.TID 0000.0001)         System time:  0.00199900568
(PID.TID 0000.0001)     Wall clock time:  0.185029507
(PID.TID 0000.0001)          No. starts: 20
(PID.TID 0000.0001)           No. stops: 20
(PID.TID 0000.0001)   Seconds in section "DO_STATEVARS_TAVE   [FORWARD_STEP]":
(PID.TID 0000.0001)           User time:  0.000999927521
(PID.TID 0000.0001)         System time:  0.
(PID.TID 0000.0001)     Wall clock time:  0.000825166702
(PID.TID 0000.0001)          No. starts: 20
(PID.TID 0000.0001)           No. stops: 20
(PID.TID 0000.0001)   Seconds in section "MONITOR             [FORWARD_STEP]":
(PID.TID 0000.0001)           User time:  0.310953557
(PID.TID 0000.0001)         System time:  0.00499998778
(PID.TID 0000.0001)     Wall clock time:  0.319314718
(PID.TID 0000.0001)          No. starts: 20
(PID.TID 0000.0001)           No. stops: 20
(PID.TID 0000.0001)   Seconds in section "DO_THE_MODEL_IO     [FORWARD_STEP]":
(PID.TID 0000.0001)           User time:  0.0869856477
(PID.TID 0000.0001)         System time:  0.0399929956
(PID.TID 0000.0001)     Wall clock time:  0.125245333
(PID.TID 0000.0001)          No. starts: 20
(PID.TID 0000.0001)           No. stops: 20
(PID.TID 0000.0001)   Seconds in section "DO_WRITE_PICKUP     [FORWARD_STEP]":
(PID.TID 0000.0001)           User time:  0.0369939804
(PID.TID 0000.0001)         System time:  0.00699900091
(PID.TID 0000.0001)     Wall clock time:  0.0447025299
(PID.TID 0000.0001)          No. starts: 20
(PID.TID 0000.0001)           No. stops: 20
(PID.TID 0000.0001) // ======================================================
(PID.TID 0000.0001) // Tile <-> Tile communication statistics
(PID.TID 0000.0001) // ======================================================
(PID.TID 0000.0001) // o Tile number: 000001
(PID.TID 0000.0001) //         No. X exchanges =              0
(PID.TID 0000.0001) //            Max. X spins =              0
(PID.TID 0000.0001) //            Min. X spins =     1000000000
(PID.TID 0000.0001) //          Total. X spins =              0
(PID.TID 0000.0001) //            Avg. X spins =       0.00E+00
(PID.TID 0000.0001) //         No. Y exchanges =              0
(PID.TID 0000.0001) //            Max. Y spins =              0
(PID.TID 0000.0001) //            Min. Y spins =     1000000000
(PID.TID 0000.0001) //          Total. Y spins =              0
(PID.TID 0000.0001) //            Avg. Y spins =       0.00E+00
(PID.TID 0000.0001) // o Tile number: 000002
(PID.TID 0000.0001) //         No. X exchanges =              0
(PID.TID 0000.0001) //            Max. X spins =              0
(PID.TID 0000.0001) //            Min. X spins =     1000000000
(PID.TID 0000.0001) //          Total. X spins =              0
(PID.TID 0000.0001) //            Avg. X spins =       0.00E+00
(PID.TID 0000.0001) //         No. Y exchanges =              0
(PID.TID 0000.0001) //            Max. Y spins =              0
(PID.TID 0000.0001) //            Min. Y spins =     1000000000
(PID.TID 0000.0001) //          Total. Y spins =              0
(PID.TID 0000.0001) //            Avg. Y spins =       0.00E+00
(PID.TID 0000.0001) // o Tile number: 000003
(PID.TID 0000.0001) //         No. X exchanges =              0
(PID.TID 0000.0001) //            Max. X spins =              0
(PID.TID 0000.0001) //            Min. X spins =     1000000000
(PID.TID 0000.0001) //          Total. X spins =              0
(PID.TID 0000.0001) //            Avg. X spins =       0.00E+00
(PID.TID 0000.0001) //         No. Y exchanges =              0
(PID.TID 0000.0001) //            Max. Y spins =              0
(PID.TID 0000.0001) //            Min. Y spins =     1000000000
(PID.TID 0000.0001) //          Total. Y spins =              0
(PID.TID 0000.0001) //            Avg. Y spins =       0.00E+00
(PID.TID 0000.0001) // o Tile number: 000004
(PID.TID 0000.0001) //         No. X exchanges =              0
(PID.TID 0000.0001) //            Max. X spins =              0
(PID.TID 0000.0001) //            Min. X spins =     1000000000
(PID.TID 0000.0001) //          Total. X spins =              0
(PID.TID 0000.0001) //            Avg. X spins =       0.00E+00
(PID.TID 0000.0001) //         No. Y exchanges =              0
(PID.TID 0000.0001) //            Max. Y spins =              0
(PID.TID 0000.0001) //            Min. Y spins =     1000000000
(PID.TID 0000.0001) //          Total. Y spins =              0
(PID.TID 0000.0001) //            Avg. Y spins =       0.00E+00
(PID.TID 0000.0001) // o Thread number: 000001
(PID.TID 0000.0001) //            No. barriers =          10296
(PID.TID 0000.0001) //      Max. barrier spins =              1
(PID.TID 0000.0001) //      Min. barrier spins =              1
(PID.TID 0000.0001) //     Total barrier spins =          10296
(PID.TID 0000.0001) //      Avg. barrier spins =       1.00E+00
