(PID.TID 0000.0001) 
(PID.TID 0000.0001) // ======================================================
(PID.TID 0000.0001) //                      MITgcm UV
(PID.TID 0000.0001) //                      =========
(PID.TID 0000.0001) // ======================================================
(PID.TID 0000.0001) // execution environment starting up...
(PID.TID 0000.0001) 
(PID.TID 0000.0001) // MITgcmUV version:  checkpoint69i
(PID.TID 0000.0001) // Build user:        averdy
(PID.TID 0000.0001) // Build host:        lani
(PID.TID 0000.0001) // Build date:        Thu Jan  8 02:14:17 PM PST 2026
(PID.TID 0000.0001) 
(PID.TID 0000.0001) // =======================================================
(PID.TID 0000.0001) // Execution Environment parameter file "eedata"
(PID.TID 0000.0001) // =======================================================
(PID.TID 0000.0001) ># Example "eedata" file
(PID.TID 0000.0001) ># Lines beginning "#" are comments
(PID.TID 0000.0001) ># nTx - No. threads per process in X
(PID.TID 0000.0001) ># nTy - No. threads per process in Y
(PID.TID 0000.0001) > &EEPARMS
(PID.TID 0000.0001) > nTx=1,
(PID.TID 0000.0001) > nTy=1,
(PID.TID 0000.0001) > /
(PID.TID 0000.0001) ># Note: Some systems use & as the
(PID.TID 0000.0001) ># namelist terminator. Other systems
(PID.TID 0000.0001) ># use a / character (as shown here).
(PID.TID 0000.0001) 
(PID.TID 0000.0001) // =======================================================
(PID.TID 0000.0001) // Computational Grid Specification ( see files "SIZE.h" )
(PID.TID 0000.0001) //                                  ( and "eedata"       )
(PID.TID 0000.0001) // =======================================================
(PID.TID 0000.0001)      nPx =    1 ; /* No. processes in X */
(PID.TID 0000.0001)      nPy =    1 ; /* No. processes in Y */
(PID.TID 0000.0001)      nSx =    2 ; /* No. tiles in X per process */
(PID.TID 0000.0001)      nSy =    2 ; /* No. tiles in Y per process */
(PID.TID 0000.0001)      sNx =   64 ; /* Tile size in X */
(PID.TID 0000.0001)      sNy =   32 ; /* Tile size in Y */
(PID.TID 0000.0001)      OLx =    4 ; /* Tile overlap distance in X */
(PID.TID 0000.0001)      OLy =    4 ; /* Tile overlap distance in Y */
(PID.TID 0000.0001)      nTx =    1 ; /* No. threads in X per process */
(PID.TID 0000.0001)      nTy =    1 ; /* No. threads in Y per process */
(PID.TID 0000.0001)       Nr =   15 ; /* No. levels in the vertical   */
(PID.TID 0000.0001)       Nx =  128 ; /* Total domain size in X ( = nPx*nSx*sNx ) */
(PID.TID 0000.0001)       Ny =   64 ; /* Total domain size in Y ( = nPy*nSy*sNy ) */
(PID.TID 0000.0001)   nTiles =    4 ; /* Total no. tiles per process ( = nSx*nSy ) */
(PID.TID 0000.0001)   nProcs =    1 ; /* Total no. processes ( = nPx*nPy ) */
(PID.TID 0000.0001) nThreads =    1 ; /* Total no. threads per process ( = nTx*nTy ) */
(PID.TID 0000.0001) usingMPI =    F ; /* Flag used to control whether MPI is in use */
(PID.TID 0000.0001)                   /*  note: To execute a program with MPI calls */
(PID.TID 0000.0001)                   /*  it must be launched appropriately e.g     */
(PID.TID 0000.0001)                   /*  "mpirun -np 64 ......"                    */
(PID.TID 0000.0001) useCoupler=   F ; /* Flag used to control communications with   */
(PID.TID 0000.0001)                   /*  other model components, through a coupler */
(PID.TID 0000.0001) useNest2W_parent =    F ;/* Control 2-W Nesting comm */
(PID.TID 0000.0001) useNest2W_child  =    F ;/* Control 2-W Nesting comm */
(PID.TID 0000.0001) debugMode =    F ; /* print debug msg. (sequence of S/R calls)  */
(PID.TID 0000.0001) printMapIncludesZeros=    F ; /* print zeros in Std.Output maps */
(PID.TID 0000.0001) maxLengthPrt1D=   65 /* maxLength of 1D array printed to StdOut */
(PID.TID 0000.0001) 
(PID.TID 0000.0001) // ======================================================
(PID.TID 0000.0001) // Mapping of tiles to threads
(PID.TID 0000.0001) // ======================================================
(PID.TID 0000.0001) // -o- Thread   1, tiles (   1:   2,   1:   2)
(PID.TID 0000.0001) 
(PID.TID 0000.0001) W2_READPARMS: file data.exch2 not found
(PID.TID 0000.0001) => use W2_EXCH2 default: Single sub-domain (nFacets=1)
(PID.TID 0000.0001) W2_useE2ioLayOut=    T ;/* T: use Exch2 glob IO map; F: use model default */
(PID.TID 0000.0001) W2_mapIO        =  -1 ; /* select option for Exch2 global-IO map */
(PID.TID 0000.0001) W2_printMsg     =  -1 ; /* select option for printing information */
(PID.TID 0000.0001) ===== Start setting W2 TOPOLOGY:
(PID.TID 0000.0001)  write to log-file: w2_tile_topology.0000.log
(PID.TID 0000.0001) =====       setting W2 TOPOLOGY: Done
(PID.TID 0000.0001) 
(PID.TID 0000.0001)  INI_PARMS: opening model parameter file "data"
(PID.TID 0000.0001)  OPEN_COPY_DATA_FILE: opening file data
(PID.TID 0000.0001) // =======================================================
(PID.TID 0000.0001) // Parameter file "data"
(PID.TID 0000.0001) // =======================================================
(PID.TID 0000.0001) ># ====================
(PID.TID 0000.0001) ># | Model parameters |
(PID.TID 0000.0001) ># ====================
(PID.TID 0000.0001) >#
(PID.TID 0000.0001) ># Continuous equation parameters
(PID.TID 0000.0001) > &PARM01
(PID.TID 0000.0001) > tRef=15*20.,
(PID.TID 0000.0001) > sRef=15*35.,
(PID.TID 0000.0001) > viscA4=0.,
(PID.TID 0000.0001) > viscAh=2.E5,
(PID.TID 0000.0001) > diffKhT=0.E3,
(PID.TID 0000.0001) > diffKhS=0.E3,
(PID.TID 0000.0001) > viscAz=1.E-3,
(PID.TID 0000.0001) >#diffKzT=3.E-5,
(PID.TID 0000.0001) >#diffKzS=3.E-5,
(PID.TID 0000.0001) > diffKrBL79surf= 3.E-5,
(PID.TID 0000.0001) > diffKrBL79deep= 13.E-5,
(PID.TID 0000.0001) > diffKrBL79Ho  = -2000.,
(PID.TID 0000.0001) > diffKrBL79scl = 150.,
(PID.TID 0000.0001) > gravity=9.81,
(PID.TID 0000.0001) > rhoConst=1035.,
(PID.TID 0000.0001) > rhoConstFresh=1000.,
(PID.TID 0000.0001) > implicitFreeSurface=.TRUE.,
(PID.TID 0000.0001) > eosType='JMD95Z',
(PID.TID 0000.0001) > implicitDiffusion=.TRUE.,
(PID.TID 0000.0001) > implicitViscosity=.TRUE.,
(PID.TID 0000.0001) > ivdc_kappa=100.,
(PID.TID 0000.0001) > tempAdvScheme       = 2,
(PID.TID 0000.0001) > saltAdvScheme       = 2,
(PID.TID 0000.0001) > allowFreezing=.TRUE.,
(PID.TID 0000.0001) ># turn on looped cells
(PID.TID 0000.0001) > hFacMin=.1,
(PID.TID 0000.0001) > hFacMindz=50.,
(PID.TID 0000.0001) > useCDscheme=.TRUE.,
(PID.TID 0000.0001) > /
(PID.TID 0000.0001) >
(PID.TID 0000.0001) ># Elliptic solver parameters
(PID.TID 0000.0001) > &PARM02
(PID.TID 0000.0001) > cg2dMaxIters=1000,
(PID.TID 0000.0001) > cg2dTargetResidual=1.E-13,
(PID.TID 0000.0001) > /
(PID.TID 0000.0001) >
(PID.TID 0000.0001) ># Time stepping parameters
(PID.TID 0000.0001) > &PARM03
(PID.TID 0000.0001) > nIter0=0,
(PID.TID 0000.0001) > nTimeSteps = 4,
(PID.TID 0000.0001) > deltaTmom  = 900.,
(PID.TID 0000.0001) > tauCD =     321428.,
(PID.TID 0000.0001) ># deltaTtracer= 43200.,
(PID.TID 0000.0001) ># deltaTClock = 43200.,
(PID.TID 0000.0001) > abEps = 0.1,
(PID.TID 0000.0001) > pChkptFreq = 216000.,
(PID.TID 0000.0001) > chkptFreq  = 216000.,
(PID.TID 0000.0001) > dumpFreq   = 216000.,
(PID.TID 0000.0001) ># taveFreq   = 216000.,
(PID.TID 0000.0001) > monitorFreq= 86400.,
(PID.TID 0000.0001) > monitorFreq= 1.,
(PID.TID 0000.0001) > adjMonitorFreq= 1.,
(PID.TID 0000.0001) > /
(PID.TID 0000.0001) >
(PID.TID 0000.0001) ># Gridding parameters
(PID.TID 0000.0001) > &PARM04
(PID.TID 0000.0001) > usingSphericalPolarGrid=.TRUE.,
(PID.TID 0000.0001) > delZ=  50., 70.,  100., 140., 190.,
(PID.TID 0000.0001) >       240., 290., 340., 390., 440.,
(PID.TID 0000.0001) >       490., 540., 590., 640., 690.,
(PID.TID 0000.0001) > ygOrigin=-90.,
(PID.TID 0000.0001) > delX=128*2.8125,
(PID.TID 0000.0001) > delY=64*2.8125,
(PID.TID 0000.0001) > /
(PID.TID 0000.0001) >
(PID.TID 0000.0001) ># Input datasets
(PID.TID 0000.0001) > &PARM05
(PID.TID 0000.0001) > bathyFile=      'bathy.bin',
(PID.TID 0000.0001) > hydrogThetaFile='lev_clim_temp.bin',
(PID.TID 0000.0001) > hydrogSaltFile= 'lev_clim_salt.bin',
(PID.TID 0000.0001) > the_run_name=   'Tutorial Biogeo',
(PID.TID 0000.0001) > /
(PID.TID 0000.0001) 
(PID.TID 0000.0001)  INI_PARMS ; starts to read PARM01
(PID.TID 0000.0001)  INI_PARMS ; read PARM01 : OK
(PID.TID 0000.0001)  INI_PARMS ; starts to read PARM02
(PID.TID 0000.0001)  INI_PARMS ; read PARM02 : OK
(PID.TID 0000.0001)  INI_PARMS ; starts to read PARM03
(PID.TID 0000.0001)  INI_PARMS ; read PARM03 : OK
(PID.TID 0000.0001)  INI_PARMS ; starts to read PARM04
(PID.TID 0000.0001)  INI_PARMS ; read PARM04 : OK
(PID.TID 0000.0001)  INI_PARMS ; starts to read PARM05
(PID.TID 0000.0001)  INI_PARMS ; read PARM05 : OK
(PID.TID 0000.0001)  INI_PARMS: finished reading file "data"
(PID.TID 0000.0001)  PACKAGES_BOOT: opening data.pkg
(PID.TID 0000.0001)  OPEN_COPY_DATA_FILE: opening file data.pkg
(PID.TID 0000.0001) // =======================================================
(PID.TID 0000.0001) // Parameter file "data.pkg"
(PID.TID 0000.0001) // =======================================================
(PID.TID 0000.0001) ># Packages
(PID.TID 0000.0001) > &PACKAGES
(PID.TID 0000.0001) > useCAL         = .TRUE.,
(PID.TID 0000.0001) > useEXF         = .TRUE.,
(PID.TID 0000.0001) > useGMRedi      = .TRUE.,
(PID.TID 0000.0001) > usePTRACERS    = .TRUE.,
(PID.TID 0000.0001) > useGCHEM       = .TRUE.,
(PID.TID 0000.0001) > useECCO        = .TRUE.,
(PID.TID 0000.0001) > useGrdchk      = .TRUE.,
(PID.TID 0000.0001) > usePROFILES    = .TRUE.,
(PID.TID 0000.0001) > useDIAGNOSTICS = .TRUE.,
(PID.TID 0000.0001) > /
(PID.TID 0000.0001) 
(PID.TID 0000.0001)  PACKAGES_BOOT: finished reading data.pkg
(PID.TID 0000.0001)  PACKAGES_BOOT: On/Off package Summary
 --------  pkgs with a standard "usePKG" On/Off switch in "data.pkg":  --------
 pkg/gmredi               compiled   and   used ( useGMRedi                = T )
 pkg/cal                  compiled   and   used ( useCAL                   = T )
 pkg/exf                  compiled   and   used ( useEXF                   = T )
 pkg/autodiff             compiled   and   used ( useAUTODIFF              = T )
 pkg/grdchk               compiled   and   used ( useGrdchk                = T )
 pkg/profiles             compiled   and   used ( usePROFILES              = T )
 pkg/obsfit               compiled but not used ( useOBSFIT                = F )
 pkg/ecco                 compiled   and   used ( useECCO                  = T )
 pkg/ctrl                 compiled   and   used ( useCTRL                  = T )
 pkg/ptracers             compiled   and   used ( usePTRACERS              = T )
 pkg/gchem                compiled   and   used ( useGCHEM                 = T )
 pkg/diagnostics          compiled   and   used ( useDiagnostics           = T )
 -------- pkgs without standard "usePKG" On/Off switch in "data.pkg":  --------
 pkg/generic_advdiff      compiled   and   used ( useGAD                   = T )
 pkg/mom_common           compiled   and   used ( momStepping              = T )
 pkg/mom_vecinv           compiled but not used ( +vectorInvariantMomentum = F )
 pkg/mom_fluxform         compiled   and   used ( & not vectorInvariantMom = T )
 pkg/cd_code              compiled   and   used ( useCDscheme              = T )
 pkg/monitor              compiled   and   used ( monitorFreq > 0.         = T )
 pkg/debug                compiled but not used ( debugMode                = F )
 pkg/exch2                compiled   and   used
 pkg/rw                   compiled   and   used
 pkg/mdsio                compiled   and   used
 pkg/autodiff             compiled   and   used
 pkg/cost                 compiled   and   used
(PID.TID 0000.0001)  PACKAGES_BOOT: End of package Summary
(PID.TID 0000.0001) 
(PID.TID 0000.0001) CAL_READPARMS: opening data.cal
(PID.TID 0000.0001)  OPEN_COPY_DATA_FILE: opening file data.cal
(PID.TID 0000.0001) // =======================================================
(PID.TID 0000.0001) // Parameter file "data.cal"
(PID.TID 0000.0001) // =======================================================
(PID.TID 0000.0001) ># *******************
(PID.TID 0000.0001) ># Calendar Parameters
(PID.TID 0000.0001) ># *******************
(PID.TID 0000.0001) > &CAL_NML
(PID.TID 0000.0001) > TheCalendar='gregorian',
(PID.TID 0000.0001) ># TheCalendar='model',
(PID.TID 0000.0001) > startDate_1=20070101,
(PID.TID 0000.0001) > startDate_2= 021130,
(PID.TID 0000.0001) > /
(PID.TID 0000.0001) 
(PID.TID 0000.0001) CAL_READPARMS: finished reading data.cal
(PID.TID 0000.0001) EXF_READPARMS: opening data.exf
(PID.TID 0000.0001)  OPEN_COPY_DATA_FILE: opening file data.exf
(PID.TID 0000.0001) // =======================================================
(PID.TID 0000.0001) // Parameter file "data.exf"
(PID.TID 0000.0001) // =======================================================
(PID.TID 0000.0001) ># *********************
(PID.TID 0000.0001) ># External Forcing Data
(PID.TID 0000.0001) ># *********************
(PID.TID 0000.0001) >#
(PID.TID 0000.0001) > &EXF_NML_01
(PID.TID 0000.0001) >#TO COMBINE WITH ALLOW_ZENITH_ANGLE:
(PID.TID 0000.0001) ># useExfZenIncoming = .TRUE.,
(PID.TID 0000.0001) ># select_ZenAlbedo  = 1,
(PID.TID 0000.0001) >#
(PID.TID 0000.0001) > exf_iprec         = 32,
(PID.TID 0000.0001) > exf_yftype        = 'RL',
(PID.TID 0000.0001) > useExfYearlyFields= .TRUE.,
(PID.TID 0000.0001) > useExfCheckRange  = .FALSE.,
(PID.TID 0000.0001) > useRelativeWind   = .TRUE.,
(PID.TID 0000.0001) > /
(PID.TID 0000.0001) >#
(PID.TID 0000.0001) > &EXF_NML_02
(PID.TID 0000.0001) ># atempfile         = 'ERA5_NRT_tmp2m_K',
(PID.TID 0000.0001) ># aqhfile           = 'ERA5_NRT_spfh2m',
(PID.TID 0000.0001) ># precipfile        = 'ERA5_NRT_rain',
(PID.TID 0000.0001) ># uwindfile         = 'ERA5_NRT_u10m',
(PID.TID 0000.0001) ># vwindfile         = 'ERA5_NRT_v10m',
(PID.TID 0000.0001) ># swdownfile        = 'ERA5_NRT_dsw',
(PID.TID 0000.0001) ># lwdownfile        = 'ERA5_NRT_dlw',
(PID.TID 0000.0001) ># runoffFile        = 'runoff_core_cnyf2p0_ccs_ms.bin',
(PID.TID 0000.0001) >#
(PID.TID 0000.0001) ># atempstartdate1   = 19920101,
(PID.TID 0000.0001) ># atempstartdate2   = 000000,
(PID.TID 0000.0001) ># atempperiod       = 3600.0,
(PID.TID 0000.0001) >#
(PID.TID 0000.0001) ># aqhstartdate1     = 19920101,
(PID.TID 0000.0001) ># aqhstartdate2     = 000000,
(PID.TID 0000.0001) ># aqhperiod         = 3600.0,
(PID.TID 0000.0001) >#
(PID.TID 0000.0001) ># apressurestartdate1     = 19920101,
(PID.TID 0000.0001) ># apressurestartdate2     = 000000,
(PID.TID 0000.0001) ># apressureperiod         = 3600.0,
(PID.TID 0000.0001) >#
(PID.TID 0000.0001) ># precipstartdate1  = 19920101,
(PID.TID 0000.0001) ># precipstartdate2  = 003000,
(PID.TID 0000.0001) ># precipperiod      = 3600.0,
(PID.TID 0000.0001) >#
(PID.TID 0000.0001) ># runoffperiod      = -12,
(PID.TID 0000.0001) >#
(PID.TID 0000.0001) ># uwindstartdate1   = 19920101,
(PID.TID 0000.0001) ># uwindstartdate2   = 000000,
(PID.TID 0000.0001) ># uwindperiod       = 3600.0,
(PID.TID 0000.0001) >#
(PID.TID 0000.0001) ># vwindstartdate1   = 19920101,
(PID.TID 0000.0001) ># vwindstartdate2   = 000000,
(PID.TID 0000.0001) ># vwindperiod       = 3600.0,
(PID.TID 0000.0001) >#
(PID.TID 0000.0001) ># swdownstartdate1  = 19920101,
(PID.TID 0000.0001) ># swdownstartdate2  = 003000,
(PID.TID 0000.0001) ># swdownperiod      = 3600.0,
(PID.TID 0000.0001) >#
(PID.TID 0000.0001) ># lwdownstartdate1  = 19920101,
(PID.TID 0000.0001) ># lwdownstartdate2  = 003000,
(PID.TID 0000.0001) ># lwdownperiod      = 3600.0,
(PID.TID 0000.0001) > /
(PID.TID 0000.0001) >#
(PID.TID 0000.0001) > &EXF_NML_03
(PID.TID 0000.0001) ># exf_inscal_precip = 1.e-03,
(PID.TID 0000.0001) > /
(PID.TID 0000.0001) >#
(PID.TID 0000.0001) > &EXF_NML_04
(PID.TID 0000.0001) ># runoff_interpMethod = 0,
(PID.TID 0000.0001) >#
(PID.TID 0000.0001) ># atemp_lon0        =   0.0000000D0,
(PID.TID 0000.0001) ># atemp_lon_inc     =   0.25D0,
(PID.TID 0000.0001) ># atemp_lat0        = -90.0D0,
(PID.TID 0000.0001) ># atemp_lat_inc     = 720*0.25D0,
(PID.TID 0000.0001) ># atemp_nlon        = 1440,
(PID.TID 0000.0001) ># atemp_nlat        = 721,
(PID.TID 0000.0001) >#
(PID.TID 0000.0001) ># aqh_lon0        =   0.0000000D0,
(PID.TID 0000.0001) ># aqh_lon_inc     =   0.25D0,
(PID.TID 0000.0001) ># aqh_lat0        = -90.0D0,
(PID.TID 0000.0001) ># aqh_lat_inc     = 720*0.25D0,
(PID.TID 0000.0001) ># aqh_nlon        = 1440,
(PID.TID 0000.0001) ># aqh_nlat        = 721,
(PID.TID 0000.0001) >#
(PID.TID 0000.0001) ># precip_lon0        =   0.0000000D0,
(PID.TID 0000.0001) ># precip_lon_inc     =   0.25D0,
(PID.TID 0000.0001) ># precip_lat0        = -90.0D0,
(PID.TID 0000.0001) ># precip_lat_inc     = 720*0.25D0,
(PID.TID 0000.0001) ># precip_nlon        = 1440,
(PID.TID 0000.0001) ># precip_nlat        = 721,
(PID.TID 0000.0001) >#
(PID.TID 0000.0001) ># uwind_lon0        =   0.0000000D0,
(PID.TID 0000.0001) ># uwind_lon_inc     =   0.25D0,
(PID.TID 0000.0001) ># uwind_lat0        = -90.0D0,
(PID.TID 0000.0001) ># uwind_lat_inc     = 720*0.25D0,
(PID.TID 0000.0001) ># uwind_nlon        = 1440,
(PID.TID 0000.0001) ># uwind_nlat        = 721,
(PID.TID 0000.0001) >#
(PID.TID 0000.0001) ># vwind_lon0        =   0.0000000D0,
(PID.TID 0000.0001) ># vwind_lon_inc     =   0.25D0,
(PID.TID 0000.0001) ># vwind_lat0        = -90.0D0,
(PID.TID 0000.0001) ># vwind_lat_inc     = 720*0.25D0,
(PID.TID 0000.0001) ># vwind_nlon        = 1440,
(PID.TID 0000.0001) ># vwind_nlat        = 721,
(PID.TID 0000.0001) >#
(PID.TID 0000.0001) ># swdown_lon0        =   0.0000000D0,
(PID.TID 0000.0001) ># swdown_lon_inc     =   0.25D0,
(PID.TID 0000.0001) ># swdown_lat0        = -90.0D0,
(PID.TID 0000.0001) ># swdown_lat_inc     = 720*0.25D0,
(PID.TID 0000.0001) ># swdown_nlon        = 1440,
(PID.TID 0000.0001) ># swdown_nlat        = 721,
(PID.TID 0000.0001) >#
(PID.TID 0000.0001) ># lwdown_lon0        =   0.0000000D0,
(PID.TID 0000.0001) ># lwdown_lon_inc     =   0.25D0,
(PID.TID 0000.0001) ># lwdown_lat0        = -90.0D0,
(PID.TID 0000.0001) ># lwdown_lat_inc     = 720*0.25D0,
(PID.TID 0000.0001) ># lwdown_nlon        = 1440,
(PID.TID 0000.0001) ># lwdown_nlat        = 721,
(PID.TID 0000.0001) >#
(PID.TID 0000.0001) > /
(PID.TID 0000.0001) >
(PID.TID 0000.0001) 
(PID.TID 0000.0001) EXF_READPARMS: reading EXF_NML_01
(PID.TID 0000.0001) EXF_READPARMS: reading EXF_NML_02
(PID.TID 0000.0001) EXF_READPARMS: reading EXF_NML_03
(PID.TID 0000.0001) EXF_READPARMS: finished reading data.exf
(PID.TID 0000.0001)  GM_READPARMS: opening data.gmredi
(PID.TID 0000.0001)  OPEN_COPY_DATA_FILE: opening file data.gmredi
(PID.TID 0000.0001) // =======================================================
(PID.TID 0000.0001) // Parameter file "data.gmredi"
(PID.TID 0000.0001) // =======================================================
(PID.TID 0000.0001) ># from MOM
(PID.TID 0000.0001) ># GM_background_K: 	isopycnal diffusion coefficien
(PID.TID 0000.0001) ># GM_maxSlope:		max slope of isopycnals
(PID.TID 0000.0001) ># GM_Scrit:		transition for scaling diffusion coefficient
(PID.TID 0000.0001) ># GM_Sd:		half width scaling for diffusion coefficient
(PID.TID 0000.0001) ># real background diff:	horizontal diffusion
(PID.TID 0000.0001) >
(PID.TID 0000.0001) ># ifdef GM_VISBECK_VARIABLE_K, include following in GM_PARM01
(PID.TID 0000.0001) ># GM_Visbeck_alpha   = 0.,
(PID.TID 0000.0001) ># GM_Visbeck_length  = 2.e+5,
(PID.TID 0000.0001) ># GM_Visbeck_depth   = 1.e+3,
(PID.TID 0000.0001) ># GM_Visbeck_maxval_K= 2.5e+3,
(PID.TID 0000.0001) >
(PID.TID 0000.0001) > &GM_PARM01
(PID.TID 0000.0001) >  GM_background_K    = 1.e+3,
(PID.TID 0000.0001) >  GM_taper_scheme    = 'gkw91',
(PID.TID 0000.0001) >  GM_maxSlope        = 1.e-2,
(PID.TID 0000.0001) >  GM_Kmin_horiz      = 100.,
(PID.TID 0000.0001) >  GM_Scrit           = 4.e-3,
(PID.TID 0000.0001) >  GM_Sd              = 1.e-3,
(PID.TID 0000.0001) > /
(PID.TID 0000.0001) 
(PID.TID 0000.0001)  GM_READPARMS: finished reading data.gmredi
(PID.TID 0000.0001)  PTRACERS_READPARMS: opening data.ptracers
(PID.TID 0000.0001)  OPEN_COPY_DATA_FILE: opening file data.ptracers
(PID.TID 0000.0001) // =======================================================
(PID.TID 0000.0001) // Parameter file "data.ptracers"
(PID.TID 0000.0001) // =======================================================
(PID.TID 0000.0001) > &PTRACERS_PARM01
(PID.TID 0000.0001) > PTRACERS_numInUse=8,
(PID.TID 0000.0001) > PTRACERS_useGMRedi=8*.TRUE.,
(PID.TID 0000.0001) > PTRACERS_useKPP=8*.FALSE.,
(PID.TID 0000.0001) ># tracer 1 - dic
(PID.TID 0000.0001) > PTRACERS_names(1)='dic',
(PID.TID 0000.0001) > PTRACERS_long_names(1)='Dissolved Inorganic Carbon',
(PID.TID 0000.0001) > PTRACERS_units(1)='mol C/m^3',
(PID.TID 0000.0001) > PTRACERS_advScheme(1)=30,
(PID.TID 0000.0001) > PTRACERS_diffKh(1)=1.E0,
(PID.TID 0000.0001) > PTRACERS_diffKr(1)=3.E-5,
(PID.TID 0000.0001) > PTRACERS_initialFile(1)='dic_init.bin',
(PID.TID 0000.0001) >#- use F95 syntax (to be converted with -DNML_EXTENDED_F77 if needed)
(PID.TID 0000.0001) > PTRACERS_ref(1:15,1) = 15*2.0282,
(PID.TID 0000.0001) ># PTRACERS_EvPrRn(1)= 0.,
(PID.TID 0000.0001) ># tracer 2 - alk
(PID.TID 0000.0001) > PTRACERS_names(2)='alk',
(PID.TID 0000.0001) > PTRACERS_long_names(2)='Alkalinity',
(PID.TID 0000.0001) > PTRACERS_units(2)='mol eq/m^3',
(PID.TID 0000.0001) > PTRACERS_advScheme(2)=30,
(PID.TID 0000.0001) > PTRACERS_diffKh(2)=1.E0,
(PID.TID 0000.0001) > PTRACERS_diffKr(2)=3.E-5,
(PID.TID 0000.0001) > PTRACERS_initialFile(2)='alk_init.bin',
(PID.TID 0000.0001) >#- use F95 syntax (to be converted with -DNML_EXTENDED_F77 if needed)
(PID.TID 0000.0001) > PTRACERS_ref(1:15,2) = 15*2.3086,
(PID.TID 0000.0001) ># PTRACERS_EvPrRn(2)= 0.,
(PID.TID 0000.0001) ># tracer 3 - o2
(PID.TID 0000.0001) > PTRACERS_names(3)='o2',
(PID.TID 0000.0001) > PTRACERS_long_names(3)='Dissolved Oxygen',
(PID.TID 0000.0001) > PTRACERS_units(3)='mol O/m^3',
(PID.TID 0000.0001) > PTRACERS_advScheme(3)=30,
(PID.TID 0000.0001) > PTRACERS_diffKh(3)=1.E0,
(PID.TID 0000.0001) > PTRACERS_diffKr(3)=3.E-5,
(PID.TID 0000.0001) > PTRACERS_initialFile(3)='o2_init.bin',
(PID.TID 0000.0001) > PTRACERS_ref(1:15,3) = 15*0.2,
(PID.TID 0000.0001) ># PTRACERS_EvPrRn(3)= 0.,
(PID.TID 0000.0001) >## tracer 4 - no3
(PID.TID 0000.0001) > PTRACERS_names(4)='no3',
(PID.TID 0000.0001) > PTRACERS_long_names(4)='Nitrate',
(PID.TID 0000.0001) > PTRACERS_units(4)='mol N/m^3',
(PID.TID 0000.0001) > PTRACERS_advScheme(4)=30,
(PID.TID 0000.0001) > PTRACERS_diffKh(4)=1.E0,
(PID.TID 0000.0001) > PTRACERS_diffKr(4)=3.E-5,
(PID.TID 0000.0001) > PTRACERS_initialFile(4)='no3_init.bin',
(PID.TID 0000.0001) > PTRACERS_ref(1:15,4) = 15*0.01,
(PID.TID 0000.0001) ># PTRACERS_EvPrRn(4)= 0.,
(PID.TID 0000.0001) ># tracer 5 - po4
(PID.TID 0000.0001) > PTRACERS_names(5)='po4',
(PID.TID 0000.0001) > PTRACERS_long_names(5)='Phosphate',
(PID.TID 0000.0001) > PTRACERS_units(5)='mol P/m^3',
(PID.TID 0000.0001) > PTRACERS_advScheme(5)=30,
(PID.TID 0000.0001) > PTRACERS_diffKh(5)=1.E0,
(PID.TID 0000.0001) > PTRACERS_diffKr(5)=3.E-5,
(PID.TID 0000.0001) > PTRACERS_initialFile(5)='po4_init.bin',
(PID.TID 0000.0001) >#- use F95 syntax (to be converted with -DNML_EXTENDED_F77 if needed)
(PID.TID 0000.0001) > PTRACERS_ref(1:15,5) = 15*0.5438E-3,
(PID.TID 0000.0001) ># PTRACERS_EvPrRn(5)= 0.,
(PID.TID 0000.0001) ># tracer 6 - fet
(PID.TID 0000.0001) > PTRACERS_names(6)='fet',
(PID.TID 0000.0001) > PTRACERS_long_names(6)='Dissolved Inorganic Iron',
(PID.TID 0000.0001) > PTRACERS_units(6)='mol Fe/m^3',
(PID.TID 0000.0001) > PTRACERS_advScheme(6)=30,
(PID.TID 0000.0001) > PTRACERS_diffKh(6)=1.E0,
(PID.TID 0000.0001) > PTRACERS_diffKr(6)=3.E-5,
(PID.TID 0000.0001) > PTRACERS_initialFile(6)='fe_init.bin',
(PID.TID 0000.0001) >#- use F95 syntax (to be converted with -DNML_EXTENDED_F77 if needed)
(PID.TID 0000.0001) > PTRACERS_ref(1:15,6) = 15*0.6e-6,
(PID.TID 0000.0001) >#PTRACERS_EvPrRn(6)= 0.,
(PID.TID 0000.0001) ># tracer 7 - don
(PID.TID 0000.0001) > PTRACERS_names(7)='don',
(PID.TID 0000.0001) > PTRACERS_long_names(7)='Dissolved Organic Nitrogen',
(PID.TID 0000.0001) > PTRACERS_units(7)='mol N/m^3',
(PID.TID 0000.0001) > PTRACERS_advScheme(7)=30,
(PID.TID 0000.0001) > PTRACERS_diffKh(7)=1.E0,
(PID.TID 0000.0001) > PTRACERS_diffKr(7)=3.E-5,
(PID.TID 0000.0001) > PTRACERS_initialFile(7)='don_init.bin',
(PID.TID 0000.0001) >#- use F95 syntax (to be converted with -DNML_EXTENDED_F77 if needed)
(PID.TID 0000.0001) > PTRACERS_ref(1:15,7) = 15*0.,
(PID.TID 0000.0001) ># PTRACERS_EvPrRn(7)= 0.,
(PID.TID 0000.0001) ># tracer 5 - dop
(PID.TID 0000.0001) > PTRACERS_names(8)='dop',
(PID.TID 0000.0001) > PTRACERS_long_names(8)='Dissolved Organic Phosphorus',
(PID.TID 0000.0001) > PTRACERS_units(8)='mol P/m^3',
(PID.TID 0000.0001) > PTRACERS_advScheme(8)=30,
(PID.TID 0000.0001) > PTRACERS_diffKh(8)=1.E0,
(PID.TID 0000.0001) > PTRACERS_diffKr(8)=3.E-5,
(PID.TID 0000.0001) > PTRACERS_initialFile(8)='dop_init.bin',
(PID.TID 0000.0001) >#- use F95 syntax (to be converted with -DNML_EXTENDED_F77 if needed)
(PID.TID 0000.0001) > PTRACERS_ref(1:15,8) = 15*0.,
(PID.TID 0000.0001) ># PTRACERS_EvPrRn(8)= 0.,
(PID.TID 0000.0001) > /
(PID.TID 0000.0001) 
(PID.TID 0000.0001)  PTRACERS_READPARMS: finished reading data.ptracers
(PID.TID 0000.0001)  GCHEM_READPARMS: opening data.gchem
(PID.TID 0000.0001)  OPEN_COPY_DATA_FILE: opening file data.gchem
(PID.TID 0000.0001) // =======================================================
(PID.TID 0000.0001) // Parameter file "data.gchem"
(PID.TID 0000.0001) // =======================================================
(PID.TID 0000.0001) > &GCHEM_PARM01
(PID.TID 0000.0001) >  useBLING=.TRUE.,
(PID.TID 0000.0001) >  gchem_useEXF=.TRUE.,
(PID.TID 0000.0001) >  nsubtime=1,
(PID.TID 0000.0001) >  gchem_windFile='tren_speed.bin',
(PID.TID 0000.0001) >  gchem_iceFile='fice.bin',
(PID.TID 0000.0001) >  gchem_SiFile='sillev1.bin',
(PID.TID 0000.0001) >  gchem_FeFile='mah_flux_smooth.bin',
(PID.TID 0000.0001) >#
(PID.TID 0000.0001) >  gchem_apco2_const = 380.5e-6,
(PID.TID 0000.0001) >  gchem_wind_const  = 5.,
(PID.TID 0000.0001) >  gchem_apres_const = 1.01325e5,
(PID.TID 0000.0001) >  gchem_par_const   = 140.0,
(PID.TID 0000.0001) >  gchem_Fe_const    = 1.e-11,
(PID.TID 0000.0001) >  gchem_Si_const    = 7.6838e-3,
(PID.TID 0000.0001) > /
(PID.TID 0000.0001) >
(PID.TID 0000.0001) > &GCHEM_FORCING_PARAMS
(PID.TID 0000.0001) >  gchem_windPeriod = -12.,
(PID.TID 0000.0001) >  gchem_icePeriod  = -12.,
(PID.TID 0000.0001) >  gchem_FePeriod   = -12.,
(PID.TID 0000.0001) >  gchem_SiPeriod   = -12.,
(PID.TID 0000.0001) > /
(PID.TID 0000.0001) >
(PID.TID 0000.0001) > &GCHEM_INTERP_PARAMS
(PID.TID 0000.0001) > /
(PID.TID 0000.0001) 
(PID.TID 0000.0001)  GCHEM_READPARMS: finished reading data.gchem
(PID.TID 0000.0001)  BLING_READPARMS: opening data.bling
(PID.TID 0000.0001)  OPEN_COPY_DATA_FILE: opening file data.bling
(PID.TID 0000.0001) // =======================================================
(PID.TID 0000.0001) // Parameter file "data.bling"
(PID.TID 0000.0001) // =======================================================
(PID.TID 0000.0001) ># BLING parameters
(PID.TID 0000.0001) > &ABIOTIC_PARMS
(PID.TID 0000.0001) > /
(PID.TID 0000.0001) >
(PID.TID 0000.0001) > &BIOTIC_PARMS
(PID.TID 0000.0001) > /
(PID.TID 0000.0001) >
(PID.TID 0000.0001) > &BLING_FORCING
(PID.TID 0000.0001) > /
(PID.TID 0000.0001) 
(PID.TID 0000.0001)  BLING_READPARMS: finished reading data.BLING
(PID.TID 0000.0001) Using Millero (1995)/Mehrbach K1 and K2 coefficients
(PID.TID 0000.0001) Using Dickson and Riley (1979) KF coefficient
(PID.TID 0000.0001) Using Uppstrom (1974) BT estimation from salinity
(PID.TID 0000.0001) Using Riley (1965) FT estimation from salinity
(PID.TID 0000.0001) GCHEM_TR_REGISTER:  Start registering GCHEM tracers
(PID.TID 0000.0001)  BLING_TR_REGISTER: number of BLING tracers=    8
(PID.TID 0000.0001)  BLING_TR_REGISTER:   starting at pTrc num =    1
(PID.TID 0000.0001)  BLING_TR_REGISTER: Numb. Trac & SepForc Trac:    8    8
(PID.TID 0000.0001) GCHEM_TR_REGISTER:  Numb. Trac & SepForc Trac:    8    8
(PID.TID 0000.0001) 
(PID.TID 0000.0001) AUTODIFF_READPARMS: opening data.autodiff
(PID.TID 0000.0001)  OPEN_COPY_DATA_FILE: opening file data.autodiff
(PID.TID 0000.0001) // =======================================================
(PID.TID 0000.0001) // Parameter file "data.autodiff"
(PID.TID 0000.0001) // =======================================================
(PID.TID 0000.0001) ># =========================
(PID.TID 0000.0001) ># pkg AUTODIFF parameters :
(PID.TID 0000.0001) ># =========================
(PID.TID 0000.0001) >#  inAdExact :: get an exact adjoint (no approximation) (def=.True.)
(PID.TID 0000.0001) >#
(PID.TID 0000.0001) > &AUTODIFF_PARM01
(PID.TID 0000.0001) ># inAdExact = .FALSE.,
(PID.TID 0000.0001) > /
(PID.TID 0000.0001) 
(PID.TID 0000.0001) AUTODIFF_READPARMS: finished reading data.autodiff
(PID.TID 0000.0001) // ===================================
(PID.TID 0000.0001) // AUTODIFF parameters :
(PID.TID 0000.0001) // ===================================
(PID.TID 0000.0001) inAdExact = /* get an exact adjoint (no approximation) */
(PID.TID 0000.0001)                   T
(PID.TID 0000.0001)     ;
(PID.TID 0000.0001) useApproxAdvectionInAdMode = /* approximate AD-advection */
(PID.TID 0000.0001)                   F
(PID.TID 0000.0001)     ;
(PID.TID 0000.0001) cg2dFullAdjoint = /* use full hand written cg2d adjoint (no approximation) */
(PID.TID 0000.0001)                   F
(PID.TID 0000.0001)     ;
(PID.TID 0000.0001) useKPPinAdMode = /* use KPP in adjoint mode */
(PID.TID 0000.0001)                   F
(PID.TID 0000.0001)     ;
(PID.TID 0000.0001) useGMRediInAdMode = /* use GMRedi in adjoint mode */
(PID.TID 0000.0001)                   T
(PID.TID 0000.0001)     ;
(PID.TID 0000.0001) useSEAICEinAdMode = /* use SEAICE in adjoint mode */
(PID.TID 0000.0001)                   F
(PID.TID 0000.0001)     ;
(PID.TID 0000.0001) useGGL90inAdMode = /* use GGL90 in adjoint mode */
(PID.TID 0000.0001)                   F
(PID.TID 0000.0001)     ;
(PID.TID 0000.0001) useSALT_PLUMEinAdMode = /* use SALT_PLUME in adjoint mode */
(PID.TID 0000.0001)                   F
(PID.TID 0000.0001)     ;
(PID.TID 0000.0001) dumpAdVarExch = /* control adexch before dumpinp */
(PID.TID 0000.0001)                       2
(PID.TID 0000.0001)     ;
(PID.TID 0000.0001) mon_AdVarExch = /* control adexch before monitor */
(PID.TID 0000.0001)                       2
(PID.TID 0000.0001)     ;
(PID.TID 0000.0001) viscFacInFw = /* viscosity factor for forward model */
(PID.TID 0000.0001)                 1.000000000000000E+00
(PID.TID 0000.0001)     ;
(PID.TID 0000.0001) viscFacInAd = /* viscosity factor for adjoint */
(PID.TID 0000.0001)                 1.000000000000000E+00
(PID.TID 0000.0001)     ;
(PID.TID 0000.0001) SIregFacInAd = /* sea ice factor for adjoint model */
(PID.TID 0000.0001)                 1.234567000000000E+05
(PID.TID 0000.0001)     ;
(PID.TID 0000.0001) SIregFacInFw = /* sea ice factor for forward model */
(PID.TID 0000.0001)                 1.234567000000000E+05
(PID.TID 0000.0001)     ;
(PID.TID 0000.0001) 
(PID.TID 0000.0001) OPTIM_READPARMS: opening data.optim
(PID.TID 0000.0001)  OPEN_COPY_DATA_FILE: opening file data.optim
(PID.TID 0000.0001) // =======================================================
(PID.TID 0000.0001) // Parameter file "data.optim"
(PID.TID 0000.0001) // =======================================================
(PID.TID 0000.0001) ># ********************************
(PID.TID 0000.0001) ># Off-line optimization parameters
(PID.TID 0000.0001) ># ********************************
(PID.TID 0000.0001) > &OPTIM
(PID.TID 0000.0001) > optimcycle=0,
(PID.TID 0000.0001) > /
(PID.TID 0000.0001) 
(PID.TID 0000.0001) OPTIM_READPARMS: finished reading data.optim
(PID.TID 0000.0001) CTRL_READPARMS: opening data.ctrl
(PID.TID 0000.0001)  OPEN_COPY_DATA_FILE: opening file data.ctrl
(PID.TID 0000.0001) // =======================================================
(PID.TID 0000.0001) // Parameter file "data.ctrl"
(PID.TID 0000.0001) // =======================================================
(PID.TID 0000.0001) ># *********************
(PID.TID 0000.0001) ># ECCO controlvariables
(PID.TID 0000.0001) ># *********************
(PID.TID 0000.0001) > &ctrl_nml
(PID.TID 0000.0001) > doSinglePrecTapelev=.TRUE.,
(PID.TID 0000.0001) > ctrlSmoothCorrel2D=.FALSE.,
(PID.TID 0000.0001) > ctrlSmoothCorrel3D=.FALSE.,
(PID.TID 0000.0001) ># doMainUnpack = .FALSE.,
(PID.TID 0000.0001) ># doPackDiag = .TRUE.,
(PID.TID 0000.0001) ># forcingPrecond=20.,
(PID.TID 0000.0001) ># doZscalePack = .TRUE.,
(PID.TID 0000.0001) ># doZscaleUnpack = .TRUE.,
(PID.TID 0000.0001) ># delZexp = -1.,
(PID.TID 0000.0001) > /
(PID.TID 0000.0001) >
(PID.TID 0000.0001) ># *********************
(PID.TID 0000.0001) ># names for ctrl_pack/unpack
(PID.TID 0000.0001) ># *********************
(PID.TID 0000.0001) > &ctrl_packnames
(PID.TID 0000.0001) > ctrlname='ecco_ctrl',
(PID.TID 0000.0001) > costname='ecco_cost',
(PID.TID 0000.0001) > /
(PID.TID 0000.0001) >
(PID.TID 0000.0001) ># *********************
(PID.TID 0000.0001) ># names for CTRL_GENARR, CTRL_GENTIM
(PID.TID 0000.0001) ># *********************
(PID.TID 0000.0001) > &CTRL_NML_GENARR
(PID.TID 0000.0001) >#  Ini Cndtns
(PID.TID 0000.0001) ># xx_genarr3d_weight(1) = 'wt_theta.bin',
(PID.TID 0000.0001) > xx_genarr3d_weight(1) = 'ones_32b.bin',
(PID.TID 0000.0001) > xx_genarr3d_file(1)='xx_theta',
(PID.TID 0000.0001) ># xx_genarr3d_preproc(1,1)='smooth',
(PID.TID 0000.0001) ># no bounds: xx_genarr3d_bounds(1:5,1)=-2.0,-1.9,39.,40.,0.,
(PID.TID 0000.0001) > mult_genarr3d(1) = 1.0,
(PID.TID 0000.0001) >#
(PID.TID 0000.0001) ># xx_genarr3d_weight(2) = 'wt_salt.bin',
(PID.TID 0000.0001) > xx_genarr3d_weight(2) = 'ones_32b.bin',
(PID.TID 0000.0001) > xx_genarr3d_file(2)='xx_salt',
(PID.TID 0000.0001) ># xx_genarr3d_preproc(1,2)='smooth',
(PID.TID 0000.0001) ># xx_genarr3d_bounds(1:5,2)=29.,29.5,40.5,41.,0.,
(PID.TID 0000.0001) > mult_genarr3d(2) = 1.0,
(PID.TID 0000.0001) >#
(PID.TID 0000.0001) ># xx_genarr3d_weight(3) = 'wt_DIC.bin',
(PID.TID 0000.0001) > xx_genarr3d_weight(3) = 'ones_32b.bin',
(PID.TID 0000.0001) > xx_genarr3d_file(3)='xx_ptr1',
(PID.TID 0000.0001) ># xx_genarr3d_preproc(1,3)='smooth',
(PID.TID 0000.0001) > mult_genarr3d(3) = 1.0,
(PID.TID 0000.0001) >#
(PID.TID 0000.0001) ># xx_genarr3d_weight(4) = 'wt_ALK.bin',
(PID.TID 0000.0001) > xx_genarr3d_weight(4) = 'ones_32b.bin',
(PID.TID 0000.0001) > xx_genarr3d_file(4)='xx_ptr2',
(PID.TID 0000.0001) ># xx_genarr3d_preproc(1,4)='smooth',
(PID.TID 0000.0001) > mult_genarr3d(4) = 1.0,
(PID.TID 0000.0001) >#
(PID.TID 0000.0001) ># xx_genarr3d_weight(5) = 'wt_O2.bin',
(PID.TID 0000.0001) > xx_genarr3d_weight(5) = 'ones_32b.bin',
(PID.TID 0000.0001) > xx_genarr3d_file(5)='xx_ptr3',
(PID.TID 0000.0001) ># xx_genarr3d_preproc(1,5)='smooth',
(PID.TID 0000.0001) > mult_genarr3d(5) = 1.0,
(PID.TID 0000.0001) >#
(PID.TID 0000.0001) ># xx_genarr3d_weight(6) = 'wt_NO3.bin',
(PID.TID 0000.0001) > xx_genarr3d_weight(6) = 'ones_32b.bin',
(PID.TID 0000.0001) > xx_genarr3d_file(6)='xx_ptr4',
(PID.TID 0000.0001) ># xx_genarr3d_preproc(1,6)='smooth',
(PID.TID 0000.0001) > mult_genarr3d(6) = 1.0,
(PID.TID 0000.0001) >#
(PID.TID 0000.0001) ># xx_genarr3d_weight(7) = 'wt_PO4.bin',
(PID.TID 0000.0001) > xx_genarr3d_weight(7) = 'ones_32b.bin',
(PID.TID 0000.0001) > xx_genarr3d_file(7)='xx_ptr5',
(PID.TID 0000.0001) ># xx_genarr3d_preproc(1,7)='smooth',
(PID.TID 0000.0001) > mult_genarr3d(7) = 1.0,
(PID.TID 0000.0001) >#
(PID.TID 0000.0001) ># xx_genarr3d_weight(8) = 'wt_FE.bin',
(PID.TID 0000.0001) > xx_genarr3d_weight(8) = 'ones_32b.bin',
(PID.TID 0000.0001) > xx_genarr3d_file(8)='xx_ptr6',
(PID.TID 0000.0001) ># xx_genarr3d_preproc(1,8)='smooth',
(PID.TID 0000.0001) > mult_genarr3d(8) = 1.0,
(PID.TID 0000.0001) >#
(PID.TID 0000.0001) > /
(PID.TID 0000.0001) 
(PID.TID 0000.0001) CTRL_READPARMS: finished reading data.ctrl
(PID.TID 0000.0001) read-write ctrl files from current run directory
(PID.TID 0000.0001) COST_READPARMS: opening data.cost
(PID.TID 0000.0001)  OPEN_COPY_DATA_FILE: opening file data.cost
(PID.TID 0000.0001) // =======================================================
(PID.TID 0000.0001) // Parameter file "data.cost"
(PID.TID 0000.0001) // =======================================================
(PID.TID 0000.0001) ># ******************
(PID.TID 0000.0001) ># ECCO cost function
(PID.TID 0000.0001) ># ******************
(PID.TID 0000.0001) > &COST_NML
(PID.TID 0000.0001) > /
(PID.TID 0000.0001) 
(PID.TID 0000.0001) COST_READPARMS: finished reading data.cost
(PID.TID 0000.0001) // =======================================================
(PID.TID 0000.0001) // cost configuration  >>> START <<<
(PID.TID 0000.0001) // =======================================================
(PID.TID 0000.0001) lastinterval =   /* cost interval over which to average ( s ). */
(PID.TID 0000.0001)                 2.592000000000000E+06
(PID.TID 0000.0001)     ;
(PID.TID 0000.0001) cost_mask_file = /* file name of cost mask file */
(PID.TID 0000.0001)               ''
(PID.TID 0000.0001)     ;
(PID.TID 0000.0001) // =======================================================
(PID.TID 0000.0001) // cost configuration  >>> END <<<
(PID.TID 0000.0001) // =======================================================
(PID.TID 0000.0001) 
(PID.TID 0000.0001) GRDCHK_READPARMS: opening data.grdchk
(PID.TID 0000.0001)  OPEN_COPY_DATA_FILE: opening file data.grdchk
(PID.TID 0000.0001) // =======================================================
(PID.TID 0000.0001) // Parameter file "data.grdchk"
(PID.TID 0000.0001) // =======================================================
(PID.TID 0000.0001) >
(PID.TID 0000.0001) ># *******************
(PID.TID 0000.0001) ># ECCO gradient check
(PID.TID 0000.0001) ># *******************
(PID.TID 0000.0001) > &GRDCHK_NML
(PID.TID 0000.0001) > grdchk_eps       = 1.d-5,
(PID.TID 0000.0001) > nbeg             = 0,
(PID.TID 0000.0001) > nstep            = 1,
(PID.TID 0000.0001) > nend             = 3,
(PID.TID 0000.0001) ># testing dpH/dALK
(PID.TID 0000.0001) > grdchkvarname    = "xx_ptr2",
(PID.TID 0000.0001) > iGloPos  =34,
(PID.TID 0000.0001) > jGloPos  =10,
(PID.TID 0000.0001) > kGloPos  =1,
(PID.TID 0000.0001) > iGloTile =2,
(PID.TID 0000.0001) > jGloTile =1,
(PID.TID 0000.0001) > /
(PID.TID 0000.0001) 
(PID.TID 0000.0001) GRDCHK_READPARMS: finished reading data.grdchk
(PID.TID 0000.0001) ECCO_READPARMS: opening data.ecco
(PID.TID 0000.0001)  OPEN_COPY_DATA_FILE: opening file data.ecco
(PID.TID 0000.0001) // =======================================================
(PID.TID 0000.0001) // Parameter file "data.ecco"
(PID.TID 0000.0001) // =======================================================
(PID.TID 0000.0001) ># ******************
(PID.TID 0000.0001) ># ECCO cost function
(PID.TID 0000.0001) ># ******************
(PID.TID 0000.0001) >#
(PID.TID 0000.0001) > &ECCO_COST_NML
(PID.TID 0000.0001) > using_cost_seaice = .FALSE.,
(PID.TID 0000.0001) > using_cost_sst = .FALSE.,
(PID.TID 0000.0001) > using_cost_altim = .FALSE.,
(PID.TID 0000.0001) > cost_iprec  = 32,
(PID.TID 0000.0001) > /
(PID.TID 0000.0001) >
(PID.TID 0000.0001) > &ECCO_GENCOST_NML
(PID.TID 0000.0001) ># SST
(PID.TID 0000.0001) > gencost_avgperiod(1) = 'day',
(PID.TID 0000.0001) > gencost_barfile(1) = 'm_sst_day',
(PID.TID 0000.0001) > gencost_datafile(1) = 'lev_clim_temp.bin',
(PID.TID 0000.0001) > gencost_errfile(1) = 'ones_32b.bin',
(PID.TID 0000.0001) > gencost_name(1) = 'sst-MW',
(PID.TID 0000.0001) > gencost_spmin(1) = -1.8,
(PID.TID 0000.0001) > gencost_spmax(1) = 40.,
(PID.TID 0000.0001) > gencost_spzero(1) = 0.,
(PID.TID 0000.0001) > gencost_outputlevel(1)=1,
(PID.TID 0000.0001) > mult_gencost(1) = 0.1,
(PID.TID 0000.0001) >#
(PID.TID 0000.0001) > /
(PID.TID 0000.0001) 
(PID.TID 0000.0001) ECCO_READPARMS: finished reading #1: ecco_cost_nml
(PID.TID 0000.0001) ECCO_READPARMS: finished reading #2: ecco_gencost_nml
(PID.TID 0000.0001) ECCO_READPARMS: done
(PID.TID 0000.0001) PROFILES_READPARMS: opening data.profiles
(PID.TID 0000.0001)  OPEN_COPY_DATA_FILE: opening file data.profiles
(PID.TID 0000.0001) // =======================================================
(PID.TID 0000.0001) // Parameter file "data.profiles"
(PID.TID 0000.0001) // =======================================================
(PID.TID 0000.0001) ># **********************
(PID.TID 0000.0001) ># PROFILES cost function
(PID.TID 0000.0001) ># **********************
(PID.TID 0000.0001) >#
(PID.TID 0000.0001) ># NetCDF-file 'sample_prof.nc' only contains data for variables T, S, PH,
(PID.TID 0000.0001) ># but if available bling allows many more variables, which are
(PID.TID 0000.0001) ># left as example namelist entries without effect, because they are
(PID.TID 0000.0001) ># not in 'sample_prof.nc'.
(PID.TID 0000.0001) >#
(PID.TID 0000.0001) ># >> ncdump -h sample_prof.nc
(PID.TID 0000.0001) ># netcdf sample_prof {
(PID.TID 0000.0001) ># dimensions:
(PID.TID 0000.0001) ># 	iPROF = 63 ;
(PID.TID 0000.0001) ># 	iDEPTH = 25 ;
(PID.TID 0000.0001) ># variables:
(PID.TID 0000.0001) ># 	double prof_depth(iDEPTH) ;
(PID.TID 0000.0001) ># 	double prof_YYYYMMDD(iPROF) ;
(PID.TID 0000.0001) ># 	double prof_HHMMSS(iPROF) ;
(PID.TID 0000.0001) ># 	double prof_lon(iPROF) ;
(PID.TID 0000.0001) >#	double prof_lat(iPROF) ;
(PID.TID 0000.0001) ># 	double prof_T(iPROF, iDEPTH) ;
(PID.TID 0000.0001) >#  	double prof_Tweight(iPROF, iDEPTH) ;
(PID.TID 0000.0001) ># 	double prof_S(iPROF, iDEPTH) ;
(PID.TID 0000.0001) ># 	double prof_Sweight(iPROF, iDEPTH) ;
(PID.TID 0000.0001) ># 	double prof_PH(iPROF, iDEPTH) ;
(PID.TID 0000.0001) >#	double prof_PHweight(iPROF, iDEPTH) ;
(PID.TID 0000.0001) ># }
(PID.TID 0000.0001) >
(PID.TID 0000.0001) > &PROFILES_NML
(PID.TID 0000.0001) ># profilesDir = 'PROF',
(PID.TID 0000.0001) > profilesfiles(1) = 'sample_prof',
(PID.TID 0000.0001) > prof_make_nc = .TRUE.,
(PID.TID 0000.0001) > profilesDoNcOutput = .TRUE.,
(PID.TID 0000.0001) ># has T, S, and pH constraints.
(PID.TID 0000.0001) ># The default mult_profiles = 1,
(PID.TID 0000.0001) ># here we turn off the cost contribution of T and S.
(PID.TID 0000.0001) > mult_profiles(1,1)   = 0.0,
(PID.TID 0000.0001) > mult_profiles(1,2)   = 0.0,
(PID.TID 0000.0001) > mult_profiles(1,14)  = 1.0,
(PID.TID 0000.0001) >#
(PID.TID 0000.0001) > prof_names(:,1)='prof_T',
(PID.TID 0000.0001) > prof_names(:,2)='prof_S',
(PID.TID 0000.0001) > prof_names(:,3)='prof_U',
(PID.TID 0000.0001) > prof_names(:,4)='prof_V',
(PID.TID 0000.0001) > prof_names(:,5)='prof_ptr',
(PID.TID 0000.0001) > prof_names(:,6)='prof_ssh',
(PID.TID 0000.0001) > prof_names(:,7)='prof_DIC',
(PID.TID 0000.0001) > prof_names(:,8)='prof_ALK',
(PID.TID 0000.0001) > prof_names(:,9)='prof_O2',
(PID.TID 0000.0001) > prof_names(:,10)='prof_NO3',
(PID.TID 0000.0001) > prof_names(:,11)='prof_PO4',
(PID.TID 0000.0001) > prof_names(:,12)='prof_FE',
(PID.TID 0000.0001) > prof_names(:,13)='prof_PCO',
(PID.TID 0000.0001) > prof_names(:,14)='prof_PH',
(PID.TID 0000.0001) > prof_names(:,15)='prof_CHL',
(PID.TID 0000.0001) > prof_names(:,16)='prof_POC',
(PID.TID 0000.0001) >#
(PID.TID 0000.0001) > prof_itracer(:,1)=1,
(PID.TID 0000.0001) > prof_itracer(:,2)=1,
(PID.TID 0000.0001) > prof_itracer(:,3)=1,
(PID.TID 0000.0001) > prof_itracer(:,4)=1,
(PID.TID 0000.0001) > prof_itracer(:,5)=1,
(PID.TID 0000.0001) > prof_itracer(:,6)=1,
(PID.TID 0000.0001) > prof_itracer(:,7)=1,
(PID.TID 0000.0001) > prof_itracer(:,8)=2,
(PID.TID 0000.0001) > prof_itracer(:,9)=3,
(PID.TID 0000.0001) > prof_itracer(:,10)=4,
(PID.TID 0000.0001) > prof_itracer(:,11)=5,
(PID.TID 0000.0001) > prof_itracer(:,12)=6,
(PID.TID 0000.0001) > prof_itracer(:,13)=1,
(PID.TID 0000.0001) > prof_itracer(:,14)=1,
(PID.TID 0000.0001) > prof_itracer(:,15)=1,
(PID.TID 0000.0001) > prof_itracer(:,16)=1,
(PID.TID 0000.0001) >#
(PID.TID 0000.0001) > prof_namesmod(:,1)='theta',
(PID.TID 0000.0001) > prof_namesmod(:,2)='salt',
(PID.TID 0000.0001) > prof_namesmod(:,3)='uVel',
(PID.TID 0000.0001) > prof_namesmod(:,4)='vVel',
(PID.TID 0000.0001) > prof_namesmod(:,5)='pTracer',
(PID.TID 0000.0001) > prof_namesmod(:,6)='etaN',
(PID.TID 0000.0001) > prof_namesmod(:,7)='pTracer',
(PID.TID 0000.0001) > prof_namesmod(:,8)='pTracer',
(PID.TID 0000.0001) > prof_namesmod(:,9)='pTracer',
(PID.TID 0000.0001) > prof_namesmod(:,10)='pTracer',
(PID.TID 0000.0001) > prof_namesmod(:,11)='pTracer',
(PID.TID 0000.0001) > prof_namesmod(:,12)='pTracer',
(PID.TID 0000.0001) > prof_namesmod(:,13)='PCO',
(PID.TID 0000.0001) > prof_namesmod(:,14)='PH',
(PID.TID 0000.0001) > prof_namesmod(:,15)='CHL',
(PID.TID 0000.0001) > prof_namesmod(:,16)='POC',
(PID.TID 0000.0001) > /
(PID.TID 0000.0001) 
(PID.TID 0000.0001) PROFILES_READPARMS: finished reading data.profiles
(PID.TID 0000.0001)  DIAGNOSTICS_READPARMS: opening data.diagnostics
(PID.TID 0000.0001)  OPEN_COPY_DATA_FILE: opening file data.diagnostics
(PID.TID 0000.0001) // =======================================================
(PID.TID 0000.0001) // Parameter file "data.diagnostics"
(PID.TID 0000.0001) // =======================================================
(PID.TID 0000.0001) ># Diagnostic Package Choices
(PID.TID 0000.0001) >#--------------------
(PID.TID 0000.0001) >#  dumpAtLast (logical): always write output at the end of simulation (default=F)
(PID.TID 0000.0001) >#  diag_mnc   (logical): write to NetCDF files (default=useMNC)
(PID.TID 0000.0001) >#--for each output-stream:
(PID.TID 0000.0001) >#  fileName(n) : prefix of the output file name (max 80c long) for outp.stream n
(PID.TID 0000.0001) >#  frequency(n):< 0 : write snap-shot output every |frequency| seconds
(PID.TID 0000.0001) >#               > 0 : write time-average output every frequency seconds
(PID.TID 0000.0001) >#  timePhase(n)     : write at time = timePhase + multiple of |frequency|
(PID.TID 0000.0001) >#    averagingFreq  : frequency (in s) for periodic averaging interval
(PID.TID 0000.0001) >#    averagingPhase : phase     (in s) for periodic averaging interval
(PID.TID 0000.0001) >#    repeatCycle    : number of averaging intervals in 1 cycle
(PID.TID 0000.0001) >#  levels(:,n) : list of levels to write to file (Notes: declared as REAL)
(PID.TID 0000.0001) >#                when this entry is missing, select all common levels of this list
(PID.TID 0000.0001) >#  fields(:,n) : list of selected diagnostics fields (8.c) in outp.stream n
(PID.TID 0000.0001) >#                (see "available_diagnostics.log" file for the full list of diags)
(PID.TID 0000.0001) >#  missing_value(n) : missing value for real-type fields in output file "n"
(PID.TID 0000.0001) >#  fileFlags(n)     : specific code (8c string) for output file "n"
(PID.TID 0000.0001) >#--------------------
(PID.TID 0000.0001) > &DIAGNOSTICS_LIST
(PID.TID 0000.0001) >  fileName(1)    = 'blingTracDiag',
(PID.TID 0000.0001) >  fields(1:8,1)  = 'TRAC01  ','TRAC02  ','TRAC03  ',
(PID.TID 0000.0001) >                   'TRAC04  ','TRAC05  ','TRAC06  ',
(PID.TID 0000.0001) >                   'TRAC07  ','TRAC08  ',
(PID.TID 0000.0001) >  frequency(1)   = 432000.,
(PID.TID 0000.0001) ># ---
(PID.TID 0000.0001) >  fileName(2)    = 'adjBlingTracDiag',
(PID.TID 0000.0001) >  fields(1:8,2)  = 'ADJptr01','ADJptr02','ADJptr03',
(PID.TID 0000.0001) >                   'ADJptr04','ADJptr05','ADJptr06',
(PID.TID 0000.0001) >                   'ADJptr07','ADJptr08'
(PID.TID 0000.0001) >  frequency(2)   = 432000.,
(PID.TID 0000.0001) > /
(PID.TID 0000.0001) >
(PID.TID 0000.0001) >#--------------------
(PID.TID 0000.0001) ># Parameter for Diagnostics of per level statistics:
(PID.TID 0000.0001) >#--------------------
(PID.TID 0000.0001) >#  diagSt_mnc (logical): write stat-diags to NetCDF files (default=diag_mnc)
(PID.TID 0000.0001) >#  diagSt_regMaskFile : file containing the region-mask to read-in
(PID.TID 0000.0001) >#  nSetRegMskFile   : number of region-mask sets within the region-mask file
(PID.TID 0000.0001) >#  set_regMask(i)   : region-mask set-index that identifies the region "i"
(PID.TID 0000.0001) >#  val_regMask(i)   : region "i" identifier value in the region mask
(PID.TID 0000.0001) >#--for each output-stream:
(PID.TID 0000.0001) >#  stat_fName(n) : prefix of the output file name (max 80c long) for outp.stream n
(PID.TID 0000.0001) >#  stat_freq(n):< 0 : write snap-shot output every |stat_freq| seconds
(PID.TID 0000.0001) >#               > 0 : write time-average output every stat_freq seconds
(PID.TID 0000.0001) >#  stat_phase(n)    : write at time = stat_phase + multiple of |stat_freq|
(PID.TID 0000.0001) >#  stat_region(:,n) : list of "regions" (default: 1 region only=global)
(PID.TID 0000.0001) >#  stat_fields(:,n) : list of selected diagnostics fields (8.c) in outp.stream n
(PID.TID 0000.0001) >#                (see "available_diagnostics.log" file for the full list of diags)
(PID.TID 0000.0001) >#--------------------
(PID.TID 0000.0001) > &DIAG_STATIS_PARMS
(PID.TID 0000.0001) >#- an example just to check the agreement with MONITOR output:
(PID.TID 0000.0001) >#stat_fields(1:5,1)  = 'ETAN    ','UVEL    ','VVEL    ','WVEL    ', 'THETA   ',
(PID.TID 0000.0001) ># stat_fName(1) = 'dynStDiag',
(PID.TID 0000.0001) >#  stat_freq(1) = -864000.,
(PID.TID 0000.0001) ># stat_phase(1) = 0.,
(PID.TID 0000.0001) > /
(PID.TID 0000.0001) >
(PID.TID 0000.0001) 
(PID.TID 0000.0001) S/R DIAGNOSTICS_READPARMS, read namelist "diagnostics_list": start
(PID.TID 0000.0001) S/R DIAGNOSTICS_READPARMS, read namelist "diagnostics_list": OK
(PID.TID 0000.0001) S/R DIAGNOSTICS_READPARMS, read namelist "DIAG_STATIS_PARMS": start
(PID.TID 0000.0001) S/R DIAGNOSTICS_READPARMS, read namelist "DIAG_STATIS_PARMS": OK
(PID.TID 0000.0001) -----------------------------------------------------
(PID.TID 0000.0001)  DIAGNOSTICS_READPARMS: global parameter summary:
(PID.TID 0000.0001)  diag_dBugLevel = /* level of printed debug messages */
(PID.TID 0000.0001)                       1
(PID.TID 0000.0001)     ;
(PID.TID 0000.0001)  dumpAtLast = /* always write time-ave diags at the end */
(PID.TID 0000.0001)                   F
(PID.TID 0000.0001)     ;
(PID.TID 0000.0001)  diag_mnc =   /* write NetCDF output files */
(PID.TID 0000.0001)                   F
(PID.TID 0000.0001)     ;
(PID.TID 0000.0001)  useMissingValue = /* put MissingValue where mask = 0 */
(PID.TID 0000.0001)                   F
(PID.TID 0000.0001)     ;
(PID.TID 0000.0001)  diagCG_maxIters = /* max number of iters in diag_cg2d */
(PID.TID 0000.0001)                    1000
(PID.TID 0000.0001)     ;
(PID.TID 0000.0001)  diagCG_resTarget = /* residual target for diag_cg2d */
(PID.TID 0000.0001)                 1.000000000000000E-13
(PID.TID 0000.0001)     ;
(PID.TID 0000.0001)  diagCG_pcOffDFac = /* preconditioner off-diagonal factor */
(PID.TID 0000.0001)                 9.611687812379854E-01
(PID.TID 0000.0001)     ;
(PID.TID 0000.0001) -----------------------------------------------------
(PID.TID 0000.0001)  DIAGNOSTICS_READPARMS: active diagnostics summary:
(PID.TID 0000.0001) -----------------------------------------------------
(PID.TID 0000.0001) Creating Output Stream: blingTracDiag
(PID.TID 0000.0001) Output Frequency:     432000.000000 ; Phase:           0.000000
(PID.TID 0000.0001)  Averaging Freq.:     432000.000000 , Phase:           0.000000 , Cycle:   1
(PID.TID 0000.0001)  missing value: -9.990000000000E+02
(PID.TID 0000.0001)  Levels:    will be set later
(PID.TID 0000.0001)  Fields:    TRAC01   TRAC02   TRAC03   TRAC04   TRAC05   TRAC06   TRAC07   TRAC08
(PID.TID 0000.0001) Creating Output Stream: adjBlingTracDiag
(PID.TID 0000.0001) Output Frequency:     432000.000000 ; Phase:           0.000000
(PID.TID 0000.0001)  Averaging Freq.:     432000.000000 , Phase:           0.000000 , Cycle:   1
(PID.TID 0000.0001)  missing value: -9.990000000000E+02
(PID.TID 0000.0001)  Levels:    will be set later
(PID.TID 0000.0001)  Fields:    ADJptr01 ADJptr02 ADJptr03 ADJptr04 ADJptr05 ADJptr06 ADJptr07 ADJptr08
(PID.TID 0000.0001) -----------------------------------------------------
(PID.TID 0000.0001)  DIAGNOSTICS_READPARMS: statistics diags. summary:
(PID.TID 0000.0001) -----------------------------------------------------
(PID.TID 0000.0001) 
(PID.TID 0000.0001) SET_PARMS: done
(PID.TID 0000.0001) Enter INI_VERTICAL_GRID: setInterFDr=    T ; setCenterDr=    F
(PID.TID 0000.0001) %MON XC_max                       =   3.5859375000000E+02
(PID.TID 0000.0001) %MON XC_min                       =   1.4062500000000E+00
(PID.TID 0000.0001) %MON XC_mean                      =   1.8000000000000E+02
(PID.TID 0000.0001) %MON XC_sd                        =   1.0391987692599E+02
(PID.TID 0000.0001) %MON XG_max                       =   3.5718750000000E+02
(PID.TID 0000.0001) %MON XG_min                       =   0.0000000000000E+00
(PID.TID 0000.0001) %MON XG_mean                      =   1.7859375000000E+02
(PID.TID 0000.0001) %MON XG_sd                        =   1.0391987692599E+02
(PID.TID 0000.0001) %MON DXC_max                      =   3.1259246843155E+05
(PID.TID 0000.0001) %MON DXC_min                      =   7.6737143816223E+03
(PID.TID 0000.0001) %MON DXC_mean                     =   1.9908248704234E+05
(PID.TID 0000.0001) %MON DXC_sd                       =   9.6190602240067E+04
(PID.TID 0000.0001) %MON DXF_max                      =   3.1259246843155E+05
(PID.TID 0000.0001) %MON DXF_min                      =   7.6737143816223E+03
(PID.TID 0000.0001) %MON DXF_mean                     =   1.9908248704234E+05
(PID.TID 0000.0001) %MON DXF_sd                       =   9.6190602240067E+04
(PID.TID 0000.0001) %MON DXG_max                      =   3.1268664380261E+05
(PID.TID 0000.0001) %MON DXG_min                      =   0.0000000000000E+00
(PID.TID 0000.0001) %MON DXG_mean                     =   1.9902252711933E+05
(PID.TID 0000.0001) %MON DXG_sd                       =   9.6314600686012E+04
(PID.TID 0000.0001) %MON DXV_max                      =   3.1268664380261E+05
(PID.TID 0000.0001) %MON DXV_min                      =   0.0000000000000E+00
(PID.TID 0000.0001) %MON DXV_mean                     =   1.9902252711933E+05
(PID.TID 0000.0001) %MON DXV_sd                       =   9.6314600686012E+04
(PID.TID 0000.0001) %MON YC_max                       =   8.8593750000000E+01
(PID.TID 0000.0001) %MON YC_min                       =  -8.8593750000000E+01
(PID.TID 0000.0001) %MON YC_mean                      =   0.0000000000000E+00
(PID.TID 0000.0001) %MON YC_sd                        =   5.1955180880375E+01
(PID.TID 0000.0001) %MON YG_max                       =   8.7187500000000E+01
(PID.TID 0000.0001) %MON YG_min                       =  -9.0000000000000E+01
(PID.TID 0000.0001) %MON YG_mean                      =  -1.4062500000000E+00
(PID.TID 0000.0001) %MON YG_sd                        =   5.1955180880375E+01
(PID.TID 0000.0001) %MON DYC_max                      =   3.1268664380261E+05
(PID.TID 0000.0001) %MON DYC_min                      =   3.1268664380261E+05
(PID.TID 0000.0001) %MON DYC_mean                     =   3.1268664380260E+05
(PID.TID 0000.0001) %MON DYC_sd                       =   4.3655745685101E-09
(PID.TID 0000.0001) %MON DYF_max                      =   3.1268664380261E+05
(PID.TID 0000.0001) %MON DYF_min                      =   3.1268664380261E+05
(PID.TID 0000.0001) %MON DYF_mean                     =   3.1268664380260E+05
(PID.TID 0000.0001) %MON DYF_sd                       =   4.3655745685101E-09
(PID.TID 0000.0001) %MON DYG_max                      =   3.1268664380261E+05
(PID.TID 0000.0001) %MON DYG_min                      =   3.1268664380261E+05
(PID.TID 0000.0001) %MON DYG_mean                     =   3.1268664380260E+05
(PID.TID 0000.0001) %MON DYG_sd                       =   4.3655745685101E-09
(PID.TID 0000.0001) %MON DYU_max                      =   3.1268664380261E+05
(PID.TID 0000.0001) %MON DYU_min                      =   3.1268664380261E+05
(PID.TID 0000.0001) %MON DYU_mean                     =   3.1268664380260E+05
(PID.TID 0000.0001) %MON DYU_sd                       =   4.3655745685101E-09
(PID.TID 0000.0001) %MON RA_max                       =   9.7733676797555E+10
(PID.TID 0000.0001) %MON RA_min                       =   2.3992270990190E+09
(PID.TID 0000.0001) %MON RA_mean                      =   6.2244185031956E+10
(PID.TID 0000.0001) %MON RA_sd                        =   3.0074496923945E+10
(PID.TID 0000.0001) %MON RAW_max                      =   9.7733676797555E+10
(PID.TID 0000.0001) %MON RAW_min                      =   2.3992270990190E+09
(PID.TID 0000.0001) %MON RAW_mean                     =   6.2244185031956E+10
(PID.TID 0000.0001) %MON RAW_sd                       =   3.0074496923945E+10
(PID.TID 0000.0001) %MON RAS_max                      =   9.7763121221868E+10
(PID.TID 0000.0001) %MON RAS_min                      =   0.0000000000000E+00
(PID.TID 0000.0001) %MON RAS_mean                     =   6.2225438247155E+10
(PID.TID 0000.0001) %MON RAS_sd                       =   3.0113265689232E+10
(PID.TID 0000.0001) %MON RAZ_max                      =   9.7763121221868E+10
(PID.TID 0000.0001) %MON RAZ_min                      =   0.0000000000000E+00
(PID.TID 0000.0001) %MON RAZ_mean                     =   6.2225438247155E+10
(PID.TID 0000.0001) %MON RAZ_sd                       =   3.0113265689232E+10
(PID.TID 0000.0001) %MON AngleCS_max                  =   1.0000000000000E+00
(PID.TID 0000.0001) %MON AngleCS_min                  =   1.0000000000000E+00
(PID.TID 0000.0001) %MON AngleCS_mean                 =   1.0000000000000E+00
(PID.TID 0000.0001) %MON AngleCS_sd                   =   0.0000000000000E+00
(PID.TID 0000.0001) %MON AngleSN_max                  =   0.0000000000000E+00
(PID.TID 0000.0001) %MON AngleSN_min                  =   0.0000000000000E+00
(PID.TID 0000.0001) %MON AngleSN_mean                 =   0.0000000000000E+00
(PID.TID 0000.0001) %MON AngleSN_sd                   =   0.0000000000000E+00
(PID.TID 0000.0001) 
(PID.TID 0000.0001) // =======================================================
(PID.TID 0000.0001) // Calendar configuration >>> START <<<
(PID.TID 0000.0001) // =======================================================
(PID.TID 0000.0001) 
(PID.TID 0000.0001) modelstart = /* Start time of the model integration [s] */
(PID.TID 0000.0001)                 0.000000000000000E+00
(PID.TID 0000.0001)     ;
(PID.TID 0000.0001) modelend  = /* End time of the model integration [s] */
(PID.TID 0000.0001)                 3.600000000000000E+03
(PID.TID 0000.0001)     ;
(PID.TID 0000.0001) modelStep = /* Time interval for a model forward step [s] */
(PID.TID 0000.0001)                 9.000000000000000E+02
(PID.TID 0000.0001)     ;
(PID.TID 0000.0001) usingGregorianCalendar= /* Calendar Type: Gregorian Calendar */
(PID.TID 0000.0001)                   T
(PID.TID 0000.0001)     ;
(PID.TID 0000.0001) usingJulianCalendar = /* Calendar Type: Julian Calendar */
(PID.TID 0000.0001)                   F
(PID.TID 0000.0001)     ;
(PID.TID 0000.0001) usingNoLeapYearCal  = /* Calendar Type: without Leap Year */
(PID.TID 0000.0001)                   F
(PID.TID 0000.0001)     ;
(PID.TID 0000.0001) usingModelCalendar  = /* Calendar Type: Model Calendar */
(PID.TID 0000.0001)                   F
(PID.TID 0000.0001)     ;
(PID.TID 0000.0001) modelStartDate YYYYMMDD = /* Model start date YYYY-MM-DD */
(PID.TID 0000.0001)                20070101
(PID.TID 0000.0001)     ;
(PID.TID 0000.0001)   modelStartDate HHMMSS = /* Model start date HH-MM-SS  */
(PID.TID 0000.0001)                   21130
(PID.TID 0000.0001)     ;
(PID.TID 0000.0001) modelEndDate   YYYYMMDD = /* Model end date YYYY-MM-DD */
(PID.TID 0000.0001)                20070101
(PID.TID 0000.0001)     ;
(PID.TID 0000.0001)   modelEndDate   HHMMSS = /* Model end date HH-MM-SS  */
(PID.TID 0000.0001)                   31130
(PID.TID 0000.0001)     ;
(PID.TID 0000.0001) intyears = /* Number of calendar years affected by the integration */
(PID.TID 0000.0001)                       1
(PID.TID 0000.0001)     ;
(PID.TID 0000.0001) intmonths= /* Number of calendar months affected by the integration */
(PID.TID 0000.0001)                       1
(PID.TID 0000.0001)     ;
(PID.TID 0000.0001) intdays = /* Number of calendar days affected by the integration */
(PID.TID 0000.0001)                       1
(PID.TID 0000.0001)     ;
(PID.TID 0000.0001) modelIter0 = /* Base timestep number  */
(PID.TID 0000.0001)                       0
(PID.TID 0000.0001)     ;
(PID.TID 0000.0001) modelIterEnd = /* Final timestep number  */
(PID.TID 0000.0001)                       4
(PID.TID 0000.0001)     ;
(PID.TID 0000.0001) modelIntSteps= /* Number of model timesteps  */
(PID.TID 0000.0001)                       4
(PID.TID 0000.0001)     ;
(PID.TID 0000.0001) 
(PID.TID 0000.0001) // =======================================================
(PID.TID 0000.0001) // Calendar configuration  >>> END <<<
(PID.TID 0000.0001) // =======================================================
(PID.TID 0000.0001) 
(PID.TID 0000.0001) GAD_INIT_FIXED: GAD_OlMinSize=  1  0  1
(PID.TID 0000.0001) 
(PID.TID 0000.0001) // ===================================
(PID.TID 0000.0001) // GAD parameters :
(PID.TID 0000.0001) // ===================================
(PID.TID 0000.0001) tempAdvScheme =   /* Temp. Horiz.Advection scheme selector */
(PID.TID 0000.0001)                       2
(PID.TID 0000.0001)     ;
(PID.TID 0000.0001) tempVertAdvScheme =   /* Temp. Vert. Advection scheme selector */
(PID.TID 0000.0001)                       2
(PID.TID 0000.0001)     ;
(PID.TID 0000.0001) tempMultiDimAdvec =   /* use Muti-Dim Advec method for Temp */
(PID.TID 0000.0001)                   F
(PID.TID 0000.0001)     ;
(PID.TID 0000.0001) tempSOM_Advection = /* use 2nd Order Moment Advection for Temp */
(PID.TID 0000.0001)                   F
(PID.TID 0000.0001)     ;
(PID.TID 0000.0001) AdamsBashforthGt = /* apply Adams-Bashforth extrapolation on Gt */
(PID.TID 0000.0001)                   T
(PID.TID 0000.0001)     ;
(PID.TID 0000.0001) AdamsBashforth_T = /* apply Adams-Bashforth extrapolation on Temp */
(PID.TID 0000.0001)                   F
(PID.TID 0000.0001)     ;
(PID.TID 0000.0001) saltAdvScheme =   /* Salt. Horiz.advection scheme selector */
(PID.TID 0000.0001)                       2
(PID.TID 0000.0001)     ;
(PID.TID 0000.0001) saltVertAdvScheme =   /* Salt. Vert. Advection scheme selector */
(PID.TID 0000.0001)                       2
(PID.TID 0000.0001)     ;
(PID.TID 0000.0001) saltMultiDimAdvec =   /* use Muti-Dim Advec method for Salt */
(PID.TID 0000.0001)                   F
(PID.TID 0000.0001)     ;
(PID.TID 0000.0001) saltSOM_Advection = /* use 2nd Order Moment Advection for Salt */
(PID.TID 0000.0001)                   F
(PID.TID 0000.0001)     ;
(PID.TID 0000.0001) AdamsBashforthGs = /* apply Adams-Bashforth extrapolation on Gs */
(PID.TID 0000.0001)                   T
(PID.TID 0000.0001)     ;
(PID.TID 0000.0001) AdamsBashforth_S = /* apply Adams-Bashforth extrapolation on Salt */
(PID.TID 0000.0001)                   F
(PID.TID 0000.0001)     ;
(PID.TID 0000.0001) // ===================================
(PID.TID 0000.0001) 
(PID.TID 0000.0001) // =======================================================
(PID.TID 0000.0001) // External forcing (EXF) configuration >>> START <<<
(PID.TID 0000.0001) // =======================================================
(PID.TID 0000.0001) 
(PID.TID 0000.0001)  EXF general parameters:
(PID.TID 0000.0001) 
(PID.TID 0000.0001) exf_iprec = /* exf file precision */
(PID.TID 0000.0001)                      32
(PID.TID 0000.0001)     ;
(PID.TID 0000.0001) useExfYearlyFields = /* add extension _YEAR to input file names */
(PID.TID 0000.0001)                   T
(PID.TID 0000.0001)     ;
(PID.TID 0000.0001) twoDigitYear = /* use 2-digit year extension */
(PID.TID 0000.0001)                   F
(PID.TID 0000.0001)     ;
(PID.TID 0000.0001) useExfCheckRange = /* check for fields range */
(PID.TID 0000.0001)                   F
(PID.TID 0000.0001)     ;
(PID.TID 0000.0001) diags_opOceWeighted = /* weight flux diags by open-ocean fraction */
(PID.TID 0000.0001)                   F
(PID.TID 0000.0001)     ;
(PID.TID 0000.0001) exf_debugLev = /* select EXF-debug printing level */
(PID.TID 0000.0001)                       1
(PID.TID 0000.0001)     ;
(PID.TID 0000.0001) exf_monFreq  = /* EXF monitor frequency [ s ] */
(PID.TID 0000.0001)                 1.000000000000000E+00
(PID.TID 0000.0001)     ;
(PID.TID 0000.0001) exf_adjMonSelect = /* select group of exf AD-variables to monitor */
(PID.TID 0000.0001)                       1
(PID.TID 0000.0001)     ;
(PID.TID 0000.0001) repeatPeriod = /* period for cycling forcing dataset [ s ] */
(PID.TID 0000.0001)                 0.000000000000000E+00
(PID.TID 0000.0001)     ;
(PID.TID 0000.0001) climTempFreeze= /* Minimum climatological temperature [deg.C] */
(PID.TID 0000.0001)                -1.900000000000000E+00
(PID.TID 0000.0001)     ;
(PID.TID 0000.0001) windStressMax = /* Maximum absolute windstress [ Pa ] */
(PID.TID 0000.0001)                 2.000000000000000E+00
(PID.TID 0000.0001)     ;
(PID.TID 0000.0001) stressIsOnCgrid = /* set u,v_stress on Arakawa C-grid */
(PID.TID 0000.0001)                   F
(PID.TID 0000.0001)     ;
(PID.TID 0000.0001) rotateStressOnAgrid = /* rotate u,v_stress on Arakawa A-grid */
(PID.TID 0000.0001)                   F
(PID.TID 0000.0001)     ;
(PID.TID 0000.0001) cen2kel = /* conversion of deg. Centigrade to Kelvin [K] */
(PID.TID 0000.0001)                 2.731500000000000E+02
(PID.TID 0000.0001)     ;
(PID.TID 0000.0001) gravity_mks= /* gravitational acceleration [m/s^2] */
(PID.TID 0000.0001)                 9.810000000000000E+00
(PID.TID 0000.0001)     ;
(PID.TID 0000.0001) atmrho =  /* mean atmospheric density [kg/m^3] */
(PID.TID 0000.0001)                 1.200000000000000E+00
(PID.TID 0000.0001)     ;
(PID.TID 0000.0001) atmcp =  /* mean atmospheric specific heat [J/kg/K] */
(PID.TID 0000.0001)                 1.005000000000000E+03
(PID.TID 0000.0001)     ;
(PID.TID 0000.0001) flamb =  /* latent heat of evaporation [J/kg] */
(PID.TID 0000.0001)                 2.500000000000000E+06
(PID.TID 0000.0001)     ;
(PID.TID 0000.0001) flami =  /* latent heat of pure-ice melting [J/kg] */
(PID.TID 0000.0001)                 3.340000000000000E+05
(PID.TID 0000.0001)     ;
(PID.TID 0000.0001) cvapor_fac = /* const. for Saturation calculation [?] */
(PID.TID 0000.0001)                 6.403800000000000E+05
(PID.TID 0000.0001)     ;
(PID.TID 0000.0001) cvapor_exp = /* const. for Saturation calculation [?] */
(PID.TID 0000.0001)                 5.107400000000000E+03
(PID.TID 0000.0001)     ;
(PID.TID 0000.0001) cvapor_fac_ice= /* const. for Saturation calculation [?] */
(PID.TID 0000.0001)                 1.163780000000000E+07
(PID.TID 0000.0001)     ;
(PID.TID 0000.0001) cvapor_exp_ice= /* const. for Saturation calculation [?] */
(PID.TID 0000.0001)                 5.897800000000000E+03
(PID.TID 0000.0001)     ;
(PID.TID 0000.0001) humid_fac = /* humidity coef. in virtual temp. [(kg/kg)^-1] */
(PID.TID 0000.0001)                 6.060000000000000E-01
(PID.TID 0000.0001)     ;
(PID.TID 0000.0001) gamma_blk = /* adiabatic lapse rate [?] */
(PID.TID 0000.0001)                 1.000000000000000E-02
(PID.TID 0000.0001)     ;
(PID.TID 0000.0001) saltsat = /* reduction of Qsat over salty water [-] */
(PID.TID 0000.0001)                 9.800000000000000E-01
(PID.TID 0000.0001)     ;
(PID.TID 0000.0001) noNegativeEvap = /* prevent negative Evaporation */
(PID.TID 0000.0001)                   F
(PID.TID 0000.0001)     ;
(PID.TID 0000.0001) sstExtrapol = /* extrapolation coeff from lev. 1 & 2 to surf [-] */
(PID.TID 0000.0001)                 0.000000000000000E+00
(PID.TID 0000.0001)     ;
(PID.TID 0000.0001) cDrag_1 = /* coef used in drag calculation [m/s] */
(PID.TID 0000.0001)                 2.700000000000000E-03
(PID.TID 0000.0001)     ;
(PID.TID 0000.0001) cDrag_2 = /* coef used in drag calculation [-] */
(PID.TID 0000.0001)                 1.420000000000000E-04
(PID.TID 0000.0001)     ;
(PID.TID 0000.0001) cDrag_3 = /* coef used in drag calculation [s/m] */
(PID.TID 0000.0001)                 7.640000000000000E-05
(PID.TID 0000.0001)     ;
(PID.TID 0000.0001) cDrag_8 = /* coef used in drag calculation [(s/m)^6] */
(PID.TID 0000.0001)                 1.234567000000000E+05
(PID.TID 0000.0001)     ;
(PID.TID 0000.0001) cDragMax = /* maximum drag (Large and Yeager, 2009) [-] */
(PID.TID 0000.0001)                 1.234567000000000E+05
(PID.TID 0000.0001)     ;
(PID.TID 0000.0001) umax = /* at maximum wind (Large and Yeager, 2009) [m/s] */
(PID.TID 0000.0001)                 1.234567000000000E+05
(PID.TID 0000.0001)     ;
(PID.TID 0000.0001) cStanton_1 = /* coef used in Stanton number calculation [-] */
(PID.TID 0000.0001)                 3.270000000000000E-02
(PID.TID 0000.0001)     ;
(PID.TID 0000.0001) cStanton_2 = /* coef used in Stanton number calculation [-] */
(PID.TID 0000.0001)                 1.800000000000000E-02
(PID.TID 0000.0001)     ;
(PID.TID 0000.0001) cDalton = /* Dalton number [-] */
(PID.TID 0000.0001)                 3.460000000000000E-02
(PID.TID 0000.0001)     ;
(PID.TID 0000.0001) exf_scal_BulkCdn= /* Drag coefficient scaling factor [-] */
(PID.TID 0000.0001)                 1.000000000000000E+00
(PID.TID 0000.0001)     ;
(PID.TID 0000.0001) zolmin = /* minimum stability parameter [?] */
(PID.TID 0000.0001)                -1.000000000000000E+02
(PID.TID 0000.0001)     ;
(PID.TID 0000.0001) psim_fac = /* coef used in turbulent fluxes calculation [-] */
(PID.TID 0000.0001)                 5.000000000000000E+00
(PID.TID 0000.0001)     ;
(PID.TID 0000.0001) zref =  /* reference height [ m ] */
(PID.TID 0000.0001)                 1.000000000000000E+01
(PID.TID 0000.0001)     ;
(PID.TID 0000.0001) hu =  /* height of mean wind [ m ] */
(PID.TID 0000.0001)                 1.000000000000000E+01
(PID.TID 0000.0001)     ;
(PID.TID 0000.0001) ht =  /* height of mean temperature [ m ] */
(PID.TID 0000.0001)                 2.000000000000000E+00
(PID.TID 0000.0001)     ;
(PID.TID 0000.0001) hq =  /* height of mean spec.humidity [ m ] */
(PID.TID 0000.0001)                 2.000000000000000E+00
(PID.TID 0000.0001)     ;
(PID.TID 0000.0001) uMin = /* minimum wind speed [m/s] */
(PID.TID 0000.0001)                 5.000000000000000E-01
(PID.TID 0000.0001)     ;
(PID.TID 0000.0001) useStabilityFct_overIce= /* transfert Coeffs over sea-ice depend on stability */
(PID.TID 0000.0001)                   F
(PID.TID 0000.0001)     ;
(PID.TID 0000.0001) exf_iceCd = /* drag coefficient over sea-ice (fixed) [-] */
(PID.TID 0000.0001)                 1.630000000000000E-03
(PID.TID 0000.0001)     ;
(PID.TID 0000.0001) exf_iceCe = /* transfert coeff. over sea-ice, for Evap (fixed) [-] */
(PID.TID 0000.0001)                 1.630000000000000E-03
(PID.TID 0000.0001)     ;
(PID.TID 0000.0001) exf_iceCh = /* transfert coeff. over sea-ice, Sens.Heat.(fixed)[-] */
(PID.TID 0000.0001)                 1.630000000000000E-03
(PID.TID 0000.0001)     ;
(PID.TID 0000.0001) exf_albedo =  /* Sea-water albedo [-] */
(PID.TID 0000.0001)                 1.000000000000000E-01
(PID.TID 0000.0001)     ;
(PID.TID 0000.0001) useExfZenAlbedo = /* Sea-water albedo varies with zenith angle */
(PID.TID 0000.0001)                   F
(PID.TID 0000.0001)     ;
(PID.TID 0000.0001) select_ZenAlbedo = /* Sea-water albedo computation method */
(PID.TID 0000.0001)                       0
(PID.TID 0000.0001)     ;
(PID.TID 0000.0001) useExfZenIncoming = /* compute incoming solar radiation */
(PID.TID 0000.0001)                   F
(PID.TID 0000.0001)     ;
(PID.TID 0000.0001) ocean_emissivity = /* longwave ocean-surface emissivity [-] */
(PID.TID 0000.0001)                 9.700176366843034E-01
(PID.TID 0000.0001)     ;
(PID.TID 0000.0001) ice_emissivity = /* longwave seaice emissivity [-] */
(PID.TID 0000.0001)                 9.500000000000000E-01
(PID.TID 0000.0001)     ;
(PID.TID 0000.0001) snow_emissivity = /* longwave snow  emissivity [-] */
(PID.TID 0000.0001)                 9.500000000000000E-01
(PID.TID 0000.0001)     ;
(PID.TID 0000.0001) 
(PID.TID 0000.0001)  EXF main CPP flags:
(PID.TID 0000.0001) 
(PID.TID 0000.0001) // USE_EXF_INTERPOLATION:          NOT defined
(PID.TID 0000.0001) // ALLOW_ATM_TEMP:                     defined
(PID.TID 0000.0001) // ALLOW_ATM_WIND (useAtmWind):        defined
(PID.TID 0000.0001) // ALLOW_DOWNWARD_RADIATION:           defined
(PID.TID 0000.0001) // ALLOW_BULKFORMULAE:                 defined
(PID.TID 0000.0001) // ALLOW_READ_TURBFLUXES:          NOT defined
(PID.TID 0000.0001) // EXF_READ_EVAP:                  NOT defined
(PID.TID 0000.0001) // ALLOW_RUNOFF:                       defined
(PID.TID 0000.0001) // ALLOW_RUNOFTEMP:                NOT defined
(PID.TID 0000.0001) // ALLOW_SALTFLX:                      defined
(PID.TID 0000.0001) 
(PID.TID 0000.0001) // =======================================================
(PID.TID 0000.0001) // External forcing (EXF) climatology configuration :
(PID.TID 0000.0001) // =======================================================
(PID.TID 0000.0001) 
(PID.TID 0000.0001) // ALLOW_CLIMSST_RELAXATION:           defined
(PID.TID 0000.0001)    climsst relaxation is NOT used
(PID.TID 0000.0001) 
(PID.TID 0000.0001) // ALLOW_CLIMSSS_RELAXATION:           defined
(PID.TID 0000.0001)    climsss relaxation is NOT used
(PID.TID 0000.0001) 
(PID.TID 0000.0001) // =======================================================
(PID.TID 0000.0001) // External forcing (EXF) configuration  >>> END <<<
(PID.TID 0000.0001) // =======================================================
(PID.TID 0000.0001) 
(PID.TID 0000.0001) 
(PID.TID 0000.0001) // =======================================================
(PID.TID 0000.0001) // insitu profiles model sampling >>> START <<<
(PID.TID 0000.0001) // =======================================================
(PID.TID 0000.0001) 
(PID.TID 0000.0001) 
(PID.TID 0000.0001)   profilesDir ./
(PID.TID 0000.0001)   profilesDoGenGrid      F
(PID.TID 0000.0001)   profilesDoNcOutput     T
(PID.TID 0000.0001) 
(PID.TID 0000.0001) 
(PID.TID 0000.0001) profiles file #  1 is sample_prof
(PID.TID 0000.0001) NF_MESSAGE: PROFILES_INIT_FIXED: NF_INQ_DIMID iINTERP  1  1 NetCDF: Invalid dimension ID or name
(PID.TID 0000.0001) S/R PROFILES_INIT_FIXED: no iINTERP dim in data file using iINTERP = NUM_INTERP_POINTS =  4
(PID.TID 0000.0001)   current tile is bi,bj                      =   1,   1
(PID.TID 0000.0001)   # of depth levels in file                  =       25
(PID.TID 0000.0001)   # of profiles in file                      =       63
(PID.TID 0000.0001)   # of profiles with erroneous HHMMSS values =        0
(PID.TID 0000.0001)   # of profiles within tile and time period  =        0
(PID.TID 0000.0001)   variable #  1 is            prof_T and theta
(PID.TID 0000.0001)   variable #  2 is            prof_S and salt
(PID.TID 0000.0001) NF_MESSAGE: PROFILES_INIT_FIXED: NF_INQ_VARID prof_names = prof_U  1  1 NetCDF: Variable not found
(PID.TID 0000.0001) S/R PROFILES_INIT_FIXED: no prof_U, setting corresponding vec_quantities = F
(PID.TID 0000.0001) NF_MESSAGE: PROFILES_INIT_FIXED: NF_INQ_VARID prof_names = prof_V  1  1 NetCDF: Variable not found
(PID.TID 0000.0001) S/R PROFILES_INIT_FIXED: no prof_V, setting corresponding vec_quantities = F
(PID.TID 0000.0001) NF_MESSAGE: PROFILES_INIT_FIXED: NF_INQ_VARID prof_names = prof_ptr  1  1 NetCDF: Variable not found
(PID.TID 0000.0001) S/R PROFILES_INIT_FIXED: no prof_ptr, setting corresponding vec_quantities = F
(PID.TID 0000.0001) NF_MESSAGE: PROFILES_INIT_FIXED: NF_INQ_VARID prof_names = prof_ssh  1  1 NetCDF: Variable not found
(PID.TID 0000.0001) S/R PROFILES_INIT_FIXED: no prof_ssh, setting corresponding vec_quantities = F
(PID.TID 0000.0001) NF_MESSAGE: PROFILES_INIT_FIXED: NF_INQ_VARID prof_names = prof_DIC  1  1 NetCDF: Variable not found
(PID.TID 0000.0001) S/R PROFILES_INIT_FIXED: no prof_DIC, setting corresponding vec_quantities = F
(PID.TID 0000.0001) NF_MESSAGE: PROFILES_INIT_FIXED: NF_INQ_VARID prof_names = prof_ALK  1  1 NetCDF: Variable not found
(PID.TID 0000.0001) S/R PROFILES_INIT_FIXED: no prof_ALK, setting corresponding vec_quantities = F
(PID.TID 0000.0001) NF_MESSAGE: PROFILES_INIT_FIXED: NF_INQ_VARID prof_names = prof_O2  1  1 NetCDF: Variable not found
(PID.TID 0000.0001) S/R PROFILES_INIT_FIXED: no prof_O2, setting corresponding vec_quantities = F
(PID.TID 0000.0001) NF_MESSAGE: PROFILES_INIT_FIXED: NF_INQ_VARID prof_names = prof_NO3  1  1 NetCDF: Variable not found
(PID.TID 0000.0001) S/R PROFILES_INIT_FIXED: no prof_NO3, setting corresponding vec_quantities = F
(PID.TID 0000.0001) NF_MESSAGE: PROFILES_INIT_FIXED: NF_INQ_VARID prof_names = prof_PO4  1  1 NetCDF: Variable not found
(PID.TID 0000.0001) S/R PROFILES_INIT_FIXED: no prof_PO4, setting corresponding vec_quantities = F
(PID.TID 0000.0001) NF_MESSAGE: PROFILES_INIT_FIXED: NF_INQ_VARID prof_names = prof_FE  1  1 NetCDF: Variable not found
(PID.TID 0000.0001) S/R PROFILES_INIT_FIXED: no prof_FE, setting corresponding vec_quantities = F
(PID.TID 0000.0001) NF_MESSAGE: PROFILES_INIT_FIXED: NF_INQ_VARID prof_names = prof_PCO  1  1 NetCDF: Variable not found
(PID.TID 0000.0001) S/R PROFILES_INIT_FIXED: no prof_PCO, setting corresponding vec_quantities = F
(PID.TID 0000.0001)   variable # 14 is            prof_PH and PH
(PID.TID 0000.0001) NF_MESSAGE: PROFILES_INIT_FIXED: NF_INQ_VARID prof_names = prof_CHL  1  1 NetCDF: Variable not found
(PID.TID 0000.0001) S/R PROFILES_INIT_FIXED: no prof_CHL, setting corresponding vec_quantities = F
(PID.TID 0000.0001) NF_MESSAGE: PROFILES_INIT_FIXED: NF_INQ_VARID prof_names = prof_POC  1  1 NetCDF: Variable not found
(PID.TID 0000.0001) S/R PROFILES_INIT_FIXED: no prof_POC, setting corresponding vec_quantities = F
(PID.TID 0000.0001) 
(PID.TID 0000.0001) profiles file #  1 is sample_prof
(PID.TID 0000.0001) NF_MESSAGE: PROFILES_INIT_FIXED: NF_INQ_DIMID iINTERP  2  1 NetCDF: Invalid dimension ID or name
(PID.TID 0000.0001) S/R PROFILES_INIT_FIXED: no iINTERP dim in data file using iINTERP = NUM_INTERP_POINTS =  4
(PID.TID 0000.0001)   current tile is bi,bj                      =   2,   1
(PID.TID 0000.0001)   # of depth levels in file                  =       25
(PID.TID 0000.0001)   # of profiles in file                      =       63
(PID.TID 0000.0001)   # of profiles with erroneous HHMMSS values =        0
(PID.TID 0000.0001)   # of profiles within tile and time period  =        1
(PID.TID 0000.0001)   variable #  1 is            prof_T and theta
(PID.TID 0000.0001)   variable #  2 is            prof_S and salt
(PID.TID 0000.0001) NF_MESSAGE: PROFILES_INIT_FIXED: NF_INQ_VARID prof_names = prof_U  2  1 NetCDF: Variable not found
(PID.TID 0000.0001) S/R PROFILES_INIT_FIXED: no prof_U, setting corresponding vec_quantities = F
(PID.TID 0000.0001) NF_MESSAGE: PROFILES_INIT_FIXED: NF_INQ_VARID prof_names = prof_V  2  1 NetCDF: Variable not found
(PID.TID 0000.0001) S/R PROFILES_INIT_FIXED: no prof_V, setting corresponding vec_quantities = F
(PID.TID 0000.0001) NF_MESSAGE: PROFILES_INIT_FIXED: NF_INQ_VARID prof_names = prof_ptr  2  1 NetCDF: Variable not found
(PID.TID 0000.0001) S/R PROFILES_INIT_FIXED: no prof_ptr, setting corresponding vec_quantities = F
(PID.TID 0000.0001) NF_MESSAGE: PROFILES_INIT_FIXED: NF_INQ_VARID prof_names = prof_ssh  2  1 NetCDF: Variable not found
(PID.TID 0000.0001) S/R PROFILES_INIT_FIXED: no prof_ssh, setting corresponding vec_quantities = F
(PID.TID 0000.0001) NF_MESSAGE: PROFILES_INIT_FIXED: NF_INQ_VARID prof_names = prof_DIC  2  1 NetCDF: Variable not found
(PID.TID 0000.0001) S/R PROFILES_INIT_FIXED: no prof_DIC, setting corresponding vec_quantities = F
[...]
(PID.TID 0000.0001) 
(PID.TID 0000.0001)  EPS = 1.000000E-05 ; grdchk CTRL var/file name: "xx_ptr2"
(PID.TID 0000.0001) 
(PID.TID 0000.0001) grdchk output h.p:  Id Itile Jtile LAYER   bi   bj   X(Id)           X(Id)+/-EPS
(PID.TID 0000.0001) grdchk output h.c:  Id  FC                   FC1                  FC2
(PID.TID 0000.0001) grdchk output h.g:  Id     FC1-FC2/(2*EPS)      ADJ GRAD(FC)         1-FDGRD/ADGRD
(PID.TID 0000.0001) 
(PID.TID 0000.0001) grdchk output (p):   1    34    10     1    2    1   0.000000000E+00 -1.000000000E-05
(PID.TID 0000.0001) grdchk output (c):   1  9.9578371834150E+02  9.9578371836801E+02  9.9578371831520E+02
(PID.TID 0000.0001) grdchk output (g):   1     2.6403427000332E-03  2.6403421070427E-03 -2.2458852733109E-07
(PID.TID 0000.0001) 
(PID.TID 0000.0001) grdchk output (p):   2    35    10     1    2    1   0.000000000E+00 -1.000000000E-05
(PID.TID 0000.0001) grdchk output (c):   2  9.9578371834150E+02  9.9578392474743E+02  9.9578351192843E+02
(PID.TID 0000.0001) grdchk output (g):   2     2.0640949941253E+01  2.0640953063965E+01  1.5128719343949E-07
(PID.TID 0000.0001) 
(PID.TID 0000.0001) grdchk output (p):   3    36    10     1    2    1   0.000000000E+00 -1.000000000E-05
(PID.TID 0000.0001) grdchk output (c):   3  9.9578371834150E+02  9.9578451481680E+02  9.9578292183936E+02
(PID.TID 0000.0001) grdchk output (g):   3     7.9648871724203E+01  7.9648895263672E+01  2.9554043445845E-07
(PID.TID 0000.0001) 
(PID.TID 0000.0001) grdchk output (p):   4    37    10     1    2    1   0.000000000E+00 -1.000000000E-05
(PID.TID 0000.0001) grdchk output (c):   4  9.9578371834150E+02  9.9578371844097E+02  9.9578371824224E+02
(PID.TID 0000.0001) grdchk output (g):   4     9.9367525763228E-03  9.9367415532470E-03 -1.1093249960847E-06
(PID.TID 0000.0001) 
(PID.TID 0000.0001) grdchk  summary  :  RMS of    4 ratios =  5.8976137480464E-07
(PID.TID 0000.0001) 
(PID.TID 0000.0001) // =======================================================
(PID.TID 0000.0001) // Gradient check results  >>> END <<<
(PID.TID 0000.0001) // =======================================================
(PID.TID 0000.0001) 
(PID.TID 0000.0001) S/R PROFILES_NC_CLOSE: Closing sample_prof        1    65536        0        0        0
(PID.TID 0000.0001) S/R PROFILES_NC_CLOSE: Closing sample_prof        1   131072   196608   262144        0
(PID.TID 0000.0001) S/R PROFILES_NC_CLOSE: Closing sample_prof        1   327680        0        0        0
(PID.TID 0000.0001) S/R PROFILES_NC_CLOSE: Closing sample_prof        1   393216        0        0        0
(PID.TID 0000.0001)   Seconds in section "ALL                    [THE_MODEL_MAIN]":
(PID.TID 0000.0001)           User time:   60.543991706101224
(PID.TID 0000.0001)         System time:  0.81354098767042160
(PID.TID 0000.0001)     Wall clock time:   66.838634014129639
(PID.TID 0000.0001)          No. starts:           1
(PID.TID 0000.0001)           No. stops:           1
(PID.TID 0000.0001)   Seconds in section "INITIALISE_FIXED       [THE_MODEL_MAIN]":
(PID.TID 0000.0001)           User time:  0.14514900231733918
(PID.TID 0000.0001)         System time:   6.3679003156721592E-002
(PID.TID 0000.0001)     Wall clock time:   1.6221218109130859
(PID.TID 0000.0001)          No. starts:           1
(PID.TID 0000.0001)           No. stops:           1
(PID.TID 0000.0001)   Seconds in section "ADTHE_MAIN_LOOP          [ADJOINT RUN]":
(PID.TID 0000.0001)           User time:   23.434464797377586
(PID.TID 0000.0001)         System time:  0.53607302904129028
(PID.TID 0000.0001)     Wall clock time:   27.690704107284546
(PID.TID 0000.0001)          No. starts:           1
(PID.TID 0000.0001)           No. stops:           1
(PID.TID 0000.0001)   Seconds in section "FORWARD_STEP        [MAIN_DO_LOOP]":
(PID.TID 0000.0001)           User time:   35.409511446952820
(PID.TID 0000.0001)         System time:  0.10229690372943878
(PID.TID 0000.0001)     Wall clock time:   38.353052377700806
(PID.TID 0000.0001)          No. starts:          40
(PID.TID 0000.0001)           No. stops:          40
(PID.TID 0000.0001)   Seconds in section "DO_STATEVARS_DIAGS  [FORWARD_STEP]":
(PID.TID 0000.0001)           User time:   1.1872470378875732E-002
(PID.TID 0000.0001)         System time:   3.5986304283142090E-005
(PID.TID 0000.0001)     Wall clock time:   1.1972665786743164E-002
(PID.TID 0000.0001)          No. starts:           8
(PID.TID 0000.0001)           No. stops:           8
(PID.TID 0000.0001)   Seconds in section "LOAD_FIELDS_DRIVER  [FORWARD_STEP]":
(PID.TID 0000.0001)           User time:  0.18568903207778931
(PID.TID 0000.0001)         System time:   1.2865915894508362E-002
(PID.TID 0000.0001)     Wall clock time:  0.19971227645874023
(PID.TID 0000.0001)          No. starts:          40
(PID.TID 0000.0001)           No. stops:          40
(PID.TID 0000.0001)   Seconds in section "EXF_GETFORCING     [LOAD_FLDS_DRIVER]":
(PID.TID 0000.0001)           User time:  0.16016680002212524
(PID.TID 0000.0001)         System time:   3.7997961044311523E-005
(PID.TID 0000.0001)     Wall clock time:  0.16109085083007812
(PID.TID 0000.0001)          No. starts:          40
(PID.TID 0000.0001)           No. stops:          40
(PID.TID 0000.0001)   Seconds in section "EXTERNAL_FLDS_LOAD [LOAD_FLDS_DRIVER]":
(PID.TID 0000.0001)           User time:   3.4248828887939453E-004
(PID.TID 0000.0001)         System time:   0.0000000000000000
(PID.TID 0000.0001)     Wall clock time:   3.3235549926757812E-004
(PID.TID 0000.0001)          No. starts:          40
(PID.TID 0000.0001)           No. stops:          40
(PID.TID 0000.0001)   Seconds in section "CTRL_MAP_FORCING  [FORWARD_STEP]":
(PID.TID 0000.0001)           User time:   4.9438774585723877E-002
(PID.TID 0000.0001)         System time:   1.4607608318328857E-004
(PID.TID 0000.0001)     Wall clock time:   4.9870491027832031E-002
(PID.TID 0000.0001)          No. starts:          40
(PID.TID 0000.0001)           No. stops:          40
(PID.TID 0000.0001)   Seconds in section "DO_ATMOSPHERIC_PHYS [FORWARD_STEP]":
(PID.TID 0000.0001)           User time:   1.1713624000549316E-002
(PID.TID 0000.0001)         System time:   2.7000904083251953E-005
(PID.TID 0000.0001)     Wall clock time:   1.2074947357177734E-002
(PID.TID 0000.0001)          No. starts:          40
(PID.TID 0000.0001)           No. stops:          40
(PID.TID 0000.0001)   Seconds in section "DO_OCEANIC_PHYS     [FORWARD_STEP]":
(PID.TID 0000.0001)           User time:   1.5969936251640320
(PID.TID 0000.0001)         System time:   2.9900074005126953E-003
(PID.TID 0000.0001)     Wall clock time:   1.6093487739562988
(PID.TID 0000.0001)          No. starts:          40
(PID.TID 0000.0001)           No. stops:          40
(PID.TID 0000.0001)   Seconds in section "THERMODYNAMICS      [FORWARD_STEP]":
(PID.TID 0000.0001)           User time:   18.775266766548157
(PID.TID 0000.0001)         System time:   9.6249729394912720E-003
(PID.TID 0000.0001)     Wall clock time:   18.891743421554565
(PID.TID 0000.0001)          No. starts:          40
(PID.TID 0000.0001)           No. stops:          40
(PID.TID 0000.0001)   Seconds in section "DYNAMICS            [FORWARD_STEP]":
(PID.TID 0000.0001)           User time:   4.1640293598175049
(PID.TID 0000.0001)         System time:   1.0694563388824463E-004
(PID.TID 0000.0001)     Wall clock time:   4.1883375644683838
(PID.TID 0000.0001)          No. starts:          40
(PID.TID 0000.0001)           No. stops:          40
(PID.TID 0000.0001)   Seconds in section "SOLVE_FOR_PRESSURE  [FORWARD_STEP]":
(PID.TID 0000.0001)           User time:  0.52709460258483887
(PID.TID 0000.0001)         System time:   8.2001090049743652E-005
(PID.TID 0000.0001)     Wall clock time:  0.53003454208374023
(PID.TID 0000.0001)          No. starts:          40
(PID.TID 0000.0001)           No. stops:          40
(PID.TID 0000.0001)   Seconds in section "MOM_CORRECTION_STEP [FORWARD_STEP]":
(PID.TID 0000.0001)           User time:  0.11534583568572998
(PID.TID 0000.0001)         System time:   1.5035271644592285E-005
(PID.TID 0000.0001)     Wall clock time:  0.11600112915039062
(PID.TID 0000.0001)          No. starts:          40
(PID.TID 0000.0001)           No. stops:          40
(PID.TID 0000.0001)   Seconds in section "INTEGR_CONTINUITY   [FORWARD_STEP]":
(PID.TID 0000.0001)           User time:  0.11688530445098877
(PID.TID 0000.0001)         System time:   3.9935111999511719E-006
(PID.TID 0000.0001)     Wall clock time:  0.11771631240844727
(PID.TID 0000.0001)          No. starts:          40
(PID.TID 0000.0001)           No. stops:          40
(PID.TID 0000.0001)   Seconds in section "TRC_CORRECTION_STEP [FORWARD_STEP]":
(PID.TID 0000.0001)           User time:   1.5389919281005859E-004
(PID.TID 0000.0001)         System time:   9.9837779998779297E-007
(PID.TID 0000.0001)     Wall clock time:   1.4877319335937500E-004
(PID.TID 0000.0001)          No. starts:          40
(PID.TID 0000.0001)           No. stops:          40
(PID.TID 0000.0001)   Seconds in section "GCHEM_FORCING_SEP  [FORWARD_STEP]":
(PID.TID 0000.0001)           User time:   3.7611602544784546
(PID.TID 0000.0001)         System time:   6.0399621725082397E-003
(PID.TID 0000.0001)     Wall clock time:   3.7919280529022217
(PID.TID 0000.0001)          No. starts:          40
(PID.TID 0000.0001)           No. stops:          40
(PID.TID 0000.0001)   Seconds in section "BLOCKING_EXCHANGES  [FORWARD_STEP]":
(PID.TID 0000.0001)           User time:  0.53547608852386475
(PID.TID 0000.0001)         System time:   9.5599889755249023E-004
(PID.TID 0000.0001)     Wall clock time:  0.53947854042053223
(PID.TID 0000.0001)          No. starts:          40
(PID.TID 0000.0001)           No. stops:          40
(PID.TID 0000.0001)   Seconds in section "MONITOR             [FORWARD_STEP]":
(PID.TID 0000.0001)           User time:   9.4450235366821289E-002
(PID.TID 0000.0001)         System time:   8.8006258010864258E-005
(PID.TID 0000.0001)     Wall clock time:   9.5062971115112305E-002
(PID.TID 0000.0001)          No. starts:          40
(PID.TID 0000.0001)           No. stops:          40
(PID.TID 0000.0001)   Seconds in section "COST_TILE           [FORWARD_STEP]":
(PID.TID 0000.0001)           User time:   1.2576580047607422E-004
(PID.TID 0000.0001)         System time:   3.9786100387573242E-006
(PID.TID 0000.0001)     Wall clock time:   1.2135505676269531E-004
(PID.TID 0000.0001)          No. starts:          40
(PID.TID 0000.0001)           No. stops:          40
(PID.TID 0000.0001)   Seconds in section "DO_THE_MODEL_IO     [FORWARD_STEP]":
(PID.TID 0000.0001)           User time:  0.10641229152679443
(PID.TID 0000.0001)         System time:   7.9300105571746826E-003
(PID.TID 0000.0001)     Wall clock time:  0.65315794944763184
(PID.TID 0000.0001)          No. starts:          40
(PID.TID 0000.0001)           No. stops:          40
(PID.TID 0000.0001)   Seconds in section "PTRACERS_RESET      [FORWARD_STEP]":
(PID.TID 0000.0001)           User time:   2.1064281463623047E-004
(PID.TID 0000.0001)         System time:   9.9837779998779297E-007
(PID.TID 0000.0001)     Wall clock time:   2.1147727966308594E-004
(PID.TID 0000.0001)          No. starts:          40
(PID.TID 0000.0001)           No. stops:          40
(PID.TID 0000.0001)   Seconds in section "DO_WRITE_PICKUP     [FORWARD_STEP]":
(PID.TID 0000.0001)           User time:   5.8411002159118652E-002
(PID.TID 0000.0001)         System time:   6.0375005006790161E-002
(PID.TID 0000.0001)     Wall clock time:   2.2166931629180908
(PID.TID 0000.0001)          No. starts:          40
(PID.TID 0000.0001)           No. stops:          40
(PID.TID 0000.0001)   Seconds in section "COST_GENCOST_ALL    [ECCO SPIN-DOWN]":
(PID.TID 0000.0001)           User time:   5.6524276733398438E-002
(PID.TID 0000.0001)         System time:   1.2764036655426025E-002
(PID.TID 0000.0001)     Wall clock time:  0.12503576278686523
(PID.TID 0000.0001)          No. starts:           9
(PID.TID 0000.0001)           No. stops:           9
(PID.TID 0000.0001)   Seconds in section "CTRL_COST_DRIVER [ECCO SPIN-DOWN]":
(PID.TID 0000.0001)           User time:  0.22055959701538086
(PID.TID 0000.0001)         System time:   4.9669146537780762E-003
(PID.TID 0000.0001)     Wall clock time:  0.22673034667968750
(PID.TID 0000.0001)          No. starts:           9
(PID.TID 0000.0001)           No. stops:           9
(PID.TID 0000.0001)   Seconds in section "I/O (WRITE)        [ADJOINT LOOP]":
(PID.TID 0000.0001)           User time:   2.0247459411621094E-002
(PID.TID 0000.0001)         System time:   3.0009746551513672E-003
(PID.TID 0000.0001)     Wall clock time:  0.16250514984130859
(PID.TID 0000.0001)          No. starts:           4
(PID.TID 0000.0001)           No. stops:           4
(PID.TID 0000.0001)   Seconds in section "GRDCHK_MAIN         [THE_MODEL_MAIN]":
(PID.TID 0000.0001)           User time:   36.964155197143555
(PID.TID 0000.0001)         System time:  0.21375799179077148
(PID.TID 0000.0001)     Wall clock time:   37.525592803955078
(PID.TID 0000.0001)          No. starts:           1
(PID.TID 0000.0001)           No. stops:           1
(PID.TID 0000.0001)   Seconds in section "INITIALISE_VARIA    [THE_MAIN_LOOP]":
(PID.TID 0000.0001)           User time:   2.8195724487304688
(PID.TID 0000.0001)         System time:  0.18105709552764893
(PID.TID 0000.0001)     Wall clock time:   3.0162358283996582
(PID.TID 0000.0001)          No. starts:           8
(PID.TID 0000.0001)           No. stops:           8
(PID.TID 0000.0001)   Seconds in section "MAIN LOOP           [THE_MAIN_LOOP]":
(PID.TID 0000.0001)           User time:   34.074665069580078
(PID.TID 0000.0001)         System time:   2.0159900188446045E-002
(PID.TID 0000.0001)     Wall clock time:   34.287372112274170
(PID.TID 0000.0001)          No. starts:           8
(PID.TID 0000.0001)           No. stops:           8
(PID.TID 0000.0001)   Seconds in section "COST_AVERAGESFIELDS [MAIN_DO_LOOP]":
(PID.TID 0000.0001)           User time:  0.56534194946289062
(PID.TID 0000.0001)         System time:   3.6954879760742188E-005
(PID.TID 0000.0001)     Wall clock time:  0.56827759742736816
(PID.TID 0000.0001)          No. starts:          32
(PID.TID 0000.0001)           No. stops:          32
(PID.TID 0000.0001)   Seconds in section "PROFILES_INLOOP    [MAIN_DO_LOOP]":
(PID.TID 0000.0001)           User time:   2.5215148925781250E-003
(PID.TID 0000.0001)         System time:   1.0132789611816406E-006
(PID.TID 0000.0001)     Wall clock time:   2.5358200073242188E-003
(PID.TID 0000.0001)          No. starts:          32
(PID.TID 0000.0001)           No. stops:          32
(PID.TID 0000.0001)   Seconds in section "MAIN_DO_LOOP        [THE_MAIN_LOOP]":
(PID.TID 0000.0001)           User time:   28.081865310668945
(PID.TID 0000.0001)         System time:   9.9658966064453125E-003
(PID.TID 0000.0001)     Wall clock time:   28.252618074417114
(PID.TID 0000.0001)          No. starts:          32
(PID.TID 0000.0001)           No. stops:          32
(PID.TID 0000.0001)   Seconds in section "COST_AVERAGESFIELDS [THE_MAIN_LOOP]":
(PID.TID 0000.0001)           User time:  0.14460182189941406
(PID.TID 0000.0001)         System time:   0.0000000000000000
(PID.TID 0000.0001)     Wall clock time:  0.14528727531433105
(PID.TID 0000.0001)          No. starts:           8
(PID.TID 0000.0001)           No. stops:           8
(PID.TID 0000.0001)   Seconds in section "PROFILES_INLOOP    [THE_MAIN_LOOP]":
(PID.TID 0000.0001)           User time:   4.5776367187500000E-004
(PID.TID 0000.0001)         System time:   0.0000000000000000
(PID.TID 0000.0001)     Wall clock time:   4.6324729919433594E-004
(PID.TID 0000.0001)          No. starts:           8
(PID.TID 0000.0001)           No. stops:           8
(PID.TID 0000.0001)   Seconds in section "ECCO_COST_DRIVER   [THE_MAIN_LOOP]":
(PID.TID 0000.0001)           User time:  0.24733734130859375
(PID.TID 0000.0001)         System time:   8.9119672775268555E-003
(PID.TID 0000.0001)     Wall clock time:  0.25759959220886230
(PID.TID 0000.0001)          No. starts:           8
(PID.TID 0000.0001)           No. stops:           8
(PID.TID 0000.0001)   Seconds in section "COST_FINAL         [ADJOINT SPIN-DOWN]":
(PID.TID 0000.0001)           User time:   6.7329406738281250E-004
(PID.TID 0000.0001)         System time:   2.5308132171630859E-004
(PID.TID 0000.0001)     Wall clock time:   9.3507766723632812E-004
(PID.TID 0000.0001)          No. starts:           8
(PID.TID 0000.0001)           No. stops:           8
(PID.TID 0000.0001) // ======================================================
(PID.TID 0000.0001) // Tile <-> Tile communication statistics
(PID.TID 0000.0001) // ======================================================
(PID.TID 0000.0001) // o Tile number: 000001
(PID.TID 0000.0001) //         No. X exchanges =              0
(PID.TID 0000.0001) //            Max. X spins =              0
(PID.TID 0000.0001) //            Min. X spins =     1000000000
(PID.TID 0000.0001) //          Total. X spins =              0
(PID.TID 0000.0001) //            Avg. X spins =       0.00E+00
(PID.TID 0000.0001) //         No. Y exchanges =              0
(PID.TID 0000.0001) //            Max. Y spins =              0
(PID.TID 0000.0001) //            Min. Y spins =     1000000000
(PID.TID 0000.0001) //          Total. Y spins =              0
(PID.TID 0000.0001) //            Avg. Y spins =       0.00E+00
(PID.TID 0000.0001) // o Tile number: 000002
(PID.TID 0000.0001) //         No. X exchanges =              0
(PID.TID 0000.0001) //            Max. X spins =              0
(PID.TID 0000.0001) //            Min. X spins =     1000000000
(PID.TID 0000.0001) //          Total. X spins =              0
(PID.TID 0000.0001) //            Avg. X spins =       0.00E+00
(PID.TID 0000.0001) //         No. Y exchanges =              0
(PID.TID 0000.0001) //            Max. Y spins =              0
(PID.TID 0000.0001) //            Min. Y spins =     1000000000
(PID.TID 0000.0001) //          Total. Y spins =              0
(PID.TID 0000.0001) //            Avg. Y spins =       0.00E+00
(PID.TID 0000.0001) // o Tile number: 000003
(PID.TID 0000.0001) //         No. X exchanges =              0
(PID.TID 0000.0001) //            Max. X spins =              0
(PID.TID 0000.0001) //            Min. X spins =     1000000000
(PID.TID 0000.0001) //          Total. X spins =              0
(PID.TID 0000.0001) //            Avg. X spins =       0.00E+00
(PID.TID 0000.0001) //         No. Y exchanges =              0
(PID.TID 0000.0001) //            Max. Y spins =              0
(PID.TID 0000.0001) //            Min. Y spins =     1000000000
(PID.TID 0000.0001) //          Total. Y spins =              0
(PID.TID 0000.0001) //            Avg. Y spins =       0.00E+00
(PID.TID 0000.0001) // o Tile number: 000004
(PID.TID 0000.0001) //         No. X exchanges =              0
(PID.TID 0000.0001) //            Max. X spins =              0
(PID.TID 0000.0001) //            Min. X spins =     1000000000
(PID.TID 0000.0001) //          Total. X spins =              0
(PID.TID 0000.0001) //            Avg. X spins =       0.00E+00
(PID.TID 0000.0001) //         No. Y exchanges =              0
(PID.TID 0000.0001) //            Max. Y spins =              0
(PID.TID 0000.0001) //            Min. Y spins =     1000000000
(PID.TID 0000.0001) //          Total. Y spins =              0
(PID.TID 0000.0001) //            Avg. Y spins =       0.00E+00
(PID.TID 0000.0001) // o Thread number: 000001
(PID.TID 0000.0001) //            No. barriers =      633654768
(PID.TID 0000.0001) //      Max. barrier spins =              1
(PID.TID 0000.0001) //      Min. barrier spins =              1
(PID.TID 0000.0001) //     Total barrier spins =      633654768
(PID.TID 0000.0001) //      Avg. barrier spins =       1.00E+00
PROGRAM MAIN: Execution ended Normally
