(PID.TID 0000.0001) 
(PID.TID 0000.0001) // ======================================================
(PID.TID 0000.0001) //                      MITgcm UV
(PID.TID 0000.0001) //                      =========
(PID.TID 0000.0001) // ======================================================
(PID.TID 0000.0001) // execution environment starting up...
(PID.TID 0000.0001) 
(PID.TID 0000.0001) // MITgcmUV version:  checkpoint57c_pre
(PID.TID 0000.0001) // Build user:        jmc
(PID.TID 0000.0001) // Build host:        faulks
(PID.TID 0000.0001) // Build date:        Thu Jan 27 09:57:49 EST 2005
(PID.TID 0000.0001) 
(PID.TID 0000.0001) // =======================================================
(PID.TID 0000.0001) // Execution Environment parameter file "eedata"
(PID.TID 0000.0001) // =======================================================
(PID.TID 0000.0001) ># Example "eedata" file
(PID.TID 0000.0001) ># Lines beginning "#" are comments
(PID.TID 0000.0001) ># nTx - No. threads per process in X
(PID.TID 0000.0001) ># nTy - No. threads per process in Y
(PID.TID 0000.0001) > &EEPARMS
(PID.TID 0000.0001) > nTx=1,nTy=1,
(PID.TID 0000.0001) > &
(PID.TID 0000.0001) ># Note: Some systems use & as the
(PID.TID 0000.0001) ># namelist terminator. Other systems
(PID.TID 0000.0001) ># use a / character (as shown here).
(PID.TID 0000.0001) 
(PID.TID 0000.0001) // =======================================================
(PID.TID 0000.0001) // Computational Grid Specification ( see files "SIZE.h" )
(PID.TID 0000.0001) //                                  ( and "eedata"       )
(PID.TID 0000.0001) // =======================================================
(PID.TID 0000.0001)      nPx =    1 ; /* No. processes in X */
(PID.TID 0000.0001)      nPy =    1 ; /* No. processes in Y */
(PID.TID 0000.0001)      nSx =    2 ; /* No. tiles in X per process */
(PID.TID 0000.0001)      nSy =    2 ; /* No. tiles in Y per process */
(PID.TID 0000.0001)      sNx =   30 ; /* Tile size in X */
(PID.TID 0000.0001)      sNy =   30 ; /* Tile size in Y */
(PID.TID 0000.0001)      OLx =    2 ; /* Tile overlap distance in X */
(PID.TID 0000.0001)      OLy =    2 ; /* Tile overlap distance in Y */
(PID.TID 0000.0001)      nTx =    1 ; /* No. threads in X per process */
(PID.TID 0000.0001)      nTy =    1 ; /* No. threads in Y per process */
(PID.TID 0000.0001)       Nr =    4 ; /* No. levels in the vertical   */
(PID.TID 0000.0001)       nX =   60 ; /* Total domain size in X ( = nPx*nSx*sNx ) */
(PID.TID 0000.0001)       nY =   60 ; /* Total domain size in Y ( = nPy*nSy*sNy ) */
(PID.TID 0000.0001)   nTiles =    4 ; /* Total no. tiles per process ( = nSx*nSy ) */
(PID.TID 0000.0001)   nProcs =    1 ; /* Total no. processes ( = nPx*nPy ) */
(PID.TID 0000.0001) nThreads =    1 ; /* Total no. threads per process ( = nTx*nTy ) */
(PID.TID 0000.0001) usingMPI =    F ; /* Flag used to control whether MPI is in use */
(PID.TID 0000.0001)                   /*  note: To execute a program with MPI calls */
(PID.TID 0000.0001)                   /*  it must be launched appropriately e.g     */
(PID.TID 0000.0001)                   /*  "mpirun -np 64 ......"                    */
(PID.TID 0000.0001) useCoupler=   F ; /* Flag used to control communications with */
(PID.TID 0000.0001)                   /*  other model components, through a coupler */
(PID.TID 0000.0001) 
(PID.TID 0000.0001) // ======================================================
(PID.TID 0000.0001) // Mapping of tiles to threads
(PID.TID 0000.0001) // ======================================================
(PID.TID 0000.0001) // -o- Thread   1, tiles (   1:   2,   1:   2)
(PID.TID 0000.0001) 
(PID.TID 0000.0001) // ======================================================
(PID.TID 0000.0001) // Tile <-> Tile connectvity table
(PID.TID 0000.0001) // ======================================================
(PID.TID 0000.0001) // Tile number: 000001 (process no. = 000001)
(PID.TID 0000.0001) //        WEST: Tile = 000002, Process = 000001, Comm = put
(PID.TID 0000.0001) //                bi = 000002, bj = 000001
(PID.TID 0000.0001) //        EAST: Tile = 000002, Process = 000001, Comm = put
(PID.TID 0000.0001) //                bi = 000002, bj = 000001
(PID.TID 0000.0001) //       SOUTH: Tile = 000003, Process = 000001, Comm = put
(PID.TID 0000.0001) //                bi = 000001, bj = 000002
(PID.TID 0000.0001) //       NORTH: Tile = 000003, Process = 000001, Comm = put
(PID.TID 0000.0001) //                bi = 000001, bj = 000002
(PID.TID 0000.0001) // Tile number: 000002 (process no. = 000001)
(PID.TID 0000.0001) //        WEST: Tile = 000001, Process = 000001, Comm = put
(PID.TID 0000.0001) //                bi = 000001, bj = 000001
(PID.TID 0000.0001) //        EAST: Tile = 000001, Process = 000001, Comm = put
(PID.TID 0000.0001) //                bi = 000001, bj = 000001
(PID.TID 0000.0001) //       SOUTH: Tile = 000004, Process = 000001, Comm = put
(PID.TID 0000.0001) //                bi = 000002, bj = 000002
(PID.TID 0000.0001) //       NORTH: Tile = 000004, Process = 000001, Comm = put
(PID.TID 0000.0001) //                bi = 000002, bj = 000002
(PID.TID 0000.0001) // Tile number: 000003 (process no. = 000001)
(PID.TID 0000.0001) //        WEST: Tile = 000004, Process = 000001, Comm = put
(PID.TID 0000.0001) //                bi = 000002, bj = 000002
(PID.TID 0000.0001) //        EAST: Tile = 000004, Process = 000001, Comm = put
(PID.TID 0000.0001) //                bi = 000002, bj = 000002
(PID.TID 0000.0001) //       SOUTH: Tile = 000001, Process = 000001, Comm = put
(PID.TID 0000.0001) //                bi = 000001, bj = 000001
(PID.TID 0000.0001) //       NORTH: Tile = 000001, Process = 000001, Comm = put
(PID.TID 0000.0001) //                bi = 000001, bj = 000001
(PID.TID 0000.0001) // Tile number: 000004 (process no. = 000001)
(PID.TID 0000.0001) //        WEST: Tile = 000003, Process = 000001, Comm = put
(PID.TID 0000.0001) //                bi = 000001, bj = 000002
(PID.TID 0000.0001) //        EAST: Tile = 000003, Process = 000001, Comm = put
(PID.TID 0000.0001) //                bi = 000001, bj = 000002
(PID.TID 0000.0001) //       SOUTH: Tile = 000002, Process = 000001, Comm = put
(PID.TID 0000.0001) //                bi = 000002, bj = 000001
(PID.TID 0000.0001) //       NORTH: Tile = 000002, Process = 000001, Comm = put
(PID.TID 0000.0001) //                bi = 000002, bj = 000001
(PID.TID 0000.0001) 
(PID.TID 0000.0001) // =======================================================
(PID.TID 0000.0001) // Model parameter file "data"
(PID.TID 0000.0001) // =======================================================
(PID.TID 0000.0001) ># Model parameters
(PID.TID 0000.0001) ># Continuous equation parameters
(PID.TID 0000.0001) > &PARM01
(PID.TID 0000.0001) > tRef=20.,10.,8.,6.,
(PID.TID 0000.0001) > sRef=10.,10.,10.,10.,
(PID.TID 0000.0001) > viscAz=1.E-2,
(PID.TID 0000.0001) > viscAh=4.E2,
(PID.TID 0000.0001) > no_slip_sides=.FALSE.,
(PID.TID 0000.0001) > no_slip_bottom=.TRUE.,
(PID.TID 0000.0001) > diffKhT=4.E2,
(PID.TID 0000.0001) > diffKzT=1.E-2,
(PID.TID 0000.0001) > f0=1.E-04,
(PID.TID 0000.0001) > beta=0.E-11,
(PID.TID 0000.0001) > tAlpha=2.E-4,
(PID.TID 0000.0001) > sBeta =0.,
(PID.TID 0000.0001) > gravity=9.81,
(PID.TID 0000.0001) > rigidLid=.FALSE.,
(PID.TID 0000.0001) > implicitFreeSurface=.TRUE.,
(PID.TID 0000.0001) > eosType='LINEAR',
(PID.TID 0000.0001) > readBinaryPrec=64,
(PID.TID 0000.0001) > &
(PID.TID 0000.0001) ># Elliptic solver parameters
(PID.TID 0000.0001) > &PARM02
(PID.TID 0000.0001) > cg2dMaxIters=1000,
(PID.TID 0000.0001) > cg2dTargetResidual=1.E-13,
(PID.TID 0000.0001) > &
(PID.TID 0000.0001) ># Time stepping parameters
(PID.TID 0000.0001) > &PARM03
(PID.TID 0000.0001) > startTime=0.,
(PID.TID 0000.0001) > endTime=48000.,
(PID.TID 0000.0001) > deltaTmom=1200.0,
(PID.TID 0000.0001) > deltaTtracer=1200.0,
(PID.TID 0000.0001) > abEps=0.1,
(PID.TID 0000.0001) > pChkptFreq=17000.0,
(PID.TID 0000.0001) > chkptFreq=0.0,
(PID.TID 0000.0001) > dumpFreq=2592000.0,
(PID.TID 0000.0001) > monitorFreq=1.,
(PID.TID 0000.0001) > &
(PID.TID 0000.0001) ># Gridding parameters
(PID.TID 0000.0001) > &PARM04
(PID.TID 0000.0001) > usingCartesianGrid=.TRUE.,
(PID.TID 0000.0001) > usingSphericalPolarGrid=.FALSE.,
(PID.TID 0000.0001) > delX=60*100.E03,
(PID.TID 0000.0001) > delY=60*100.E03,
(PID.TID 0000.0001) > delZ=500.,500.,500.,500.,
(PID.TID 0000.0001) > &
(PID.TID 0000.0001) > &PARM05
(PID.TID 0000.0001) > bathyFile='topog.box',
(PID.TID 0000.0001) > hydrogThetaFile=,
(PID.TID 0000.0001) > hydrogSaltFile=,
(PID.TID 0000.0001) > zonalWindFile=,
(PID.TID 0000.0001) > meridWindFile=,
(PID.TID 0000.0001) > pLoadFile='pLoad.bin',
(PID.TID 0000.0001) > &
(PID.TID 0000.0001) 
(PID.TID 0000.0001) S/R INI_PARMS ; starts to read PARM01
(PID.TID 0000.0001) S/R INI_PARMS ; read PARM01 : OK
(PID.TID 0000.0001) S/R INI_PARMS ; starts to read PARM02
(PID.TID 0000.0001) S/R INI_PARMS ; read PARM02 : OK
(PID.TID 0000.0001) S/R INI_PARMS ; starts to read PARM03
(PID.TID 0000.0001) S/R INI_PARMS ; read PARM03 : OK
(PID.TID 0000.0001) S/R INI_PARMS ; starts to read PARM04
(PID.TID 0000.0001) S/R INI_PARMS ; read PARM04 : OK
(PID.TID 0000.0001) S/R INI_PARMS ; starts to read PARM05
(PID.TID 0000.0001) S/R INI_PARMS ; read PARM05 : OK
(PID.TID 0000.0001)  PACKAGES_BOOT: opening data.pkg
(PID.TID 0000.0001)  OPEN_COPY_DATA_FILE: opening file data.pkg
(PID.TID 0000.0001) // =======================================================
(PID.TID 0000.0001) // Parameter file "data.pkg"
(PID.TID 0000.0001) // =======================================================
(PID.TID 0000.0001) ># Packages
(PID.TID 0000.0001) > &PACKAGES
(PID.TID 0000.0001) > &
(PID.TID 0000.0001) 
(PID.TID 0000.0001)  PACKAGES_BOOT: finished reading data.pkg
(PID.TID 0000.0001) %MON XC_max                       =   5.9500000000000E+06
(PID.TID 0000.0001) %MON XC_min                       =   5.0000000000000E+04
(PID.TID 0000.0001) %MON XC_mean                      =   3.0000000000000E+06
(PID.TID 0000.0001) %MON XC_sd                        =   1.7318102282487E+06
(PID.TID 0000.0001) %MON XG_max                       =   5.9000000000000E+06
(PID.TID 0000.0001) %MON XG_min                       =   1.0000000000000E+05
(PID.TID 0000.0001) %MON XG_mean                      =   3.0000000000000E+06
(PID.TID 0000.0001) %MON XG_sd                        =   1.7029386365926E+06
(PID.TID 0000.0001) %MON DXC_max                      =   1.0000000000000E+05
(PID.TID 0000.0001) %MON DXC_min                      =   1.0000000000000E+05
(PID.TID 0000.0001) %MON DXC_mean                     =   1.0000000000000E+05
(PID.TID 0000.0001) %MON DXC_sd                       =   0.0000000000000E+00
(PID.TID 0000.0001) %MON DXF_max                      =   1.0000000000000E+05
(PID.TID 0000.0001) %MON DXF_min                      =   1.0000000000000E+05
(PID.TID 0000.0001) %MON DXF_mean                     =   1.0000000000000E+05
(PID.TID 0000.0001) %MON DXF_sd                       =   0.0000000000000E+00
(PID.TID 0000.0001) %MON DXG_max                      =   1.0000000000000E+05
(PID.TID 0000.0001) %MON DXG_min                      =   1.0000000000000E+05
(PID.TID 0000.0001) %MON DXG_mean                     =   1.0000000000000E+05
(PID.TID 0000.0001) %MON DXG_sd                       =   0.0000000000000E+00
(PID.TID 0000.0001) %MON DXV_max                      =   1.0000000000000E+05
(PID.TID 0000.0001) %MON DXV_min                      =   1.0000000000000E+05
(PID.TID 0000.0001) %MON DXV_mean                     =   1.0000000000000E+05
(PID.TID 0000.0001) %MON DXV_sd                       =   0.0000000000000E+00
(PID.TID 0000.0001) %MON YC_max                       =   5.9500000000000E+06
(PID.TID 0000.0001) %MON YC_min                       =   5.0000000000000E+04
(PID.TID 0000.0001) %MON YC_mean                      =   3.0000000000000E+06
(PID.TID 0000.0001) %MON YC_sd                        =   1.7318102282487E+06
(PID.TID 0000.0001) %MON YG_max                       =   5.9000000000000E+06
(PID.TID 0000.0001) %MON YG_min                       =   1.0000000000000E+05
(PID.TID 0000.0001) %MON YG_mean                      =   3.0000000000000E+06
(PID.TID 0000.0001) %MON YG_sd                        =   1.7029386365926E+06
(PID.TID 0000.0001) %MON DYC_max                      =   1.0000000000000E+05
(PID.TID 0000.0001) %MON DYC_min                      =   1.0000000000000E+05
(PID.TID 0000.0001) %MON DYC_mean                     =   1.0000000000000E+05
(PID.TID 0000.0001) %MON DYC_sd                       =   0.0000000000000E+00
(PID.TID 0000.0001) %MON DYF_max                      =   1.0000000000000E+05
(PID.TID 0000.0001) %MON DYF_min                      =   1.0000000000000E+05
(PID.TID 0000.0001) %MON DYF_mean                     =   1.0000000000000E+05
(PID.TID 0000.0001) %MON DYF_sd                       =   0.0000000000000E+00
(PID.TID 0000.0001) %MON DYG_max                      =   1.0000000000000E+05
(PID.TID 0000.0001) %MON DYG_min                      =   1.0000000000000E+05
(PID.TID 0000.0001) %MON DYG_mean                     =   1.0000000000000E+05
(PID.TID 0000.0001) %MON DYG_sd                       =   0.0000000000000E+00
(PID.TID 0000.0001) %MON DYU_max                      =   1.0000000000000E+05
(PID.TID 0000.0001) %MON DYU_min                      =   1.0000000000000E+05
(PID.TID 0000.0001) %MON DYU_mean                     =   1.0000000000000E+05
(PID.TID 0000.0001) %MON DYU_sd                       =   0.0000000000000E+00
(PID.TID 0000.0001) %MON RA_max                       =   1.0000000000000E+10
(PID.TID 0000.0001) %MON RA_min                       =   1.0000000000000E+10
(PID.TID 0000.0001) %MON RA_mean                      =   1.0000000000000E+10
(PID.TID 0000.0001) %MON RA_sd                        =   0.0000000000000E+00
(PID.TID 0000.0001) %MON RAW_max                      =   1.0000000000000E+10
(PID.TID 0000.0001) %MON RAW_min                      =   1.0000000000000E+10
(PID.TID 0000.0001) %MON RAW_mean                     =   1.0000000000000E+10
(PID.TID 0000.0001) %MON RAW_sd                       =   0.0000000000000E+00
(PID.TID 0000.0001) %MON RAS_max                      =   1.0000000000000E+10
(PID.TID 0000.0001) %MON RAS_min                      =   1.0000000000000E+10
(PID.TID 0000.0001) %MON RAS_mean                     =   1.0000000000000E+10
(PID.TID 0000.0001) %MON RAS_sd                       =   0.0000000000000E+00
(PID.TID 0000.0001) %MON RAZ_max                      =   1.0000000000000E+10
(PID.TID 0000.0001) %MON RAZ_min                      =   1.0000000000000E+10
(PID.TID 0000.0001) %MON RAZ_mean                     =   1.0000000000000E+10
(PID.TID 0000.0001) %MON RAZ_sd                       =   0.0000000000000E+00
(PID.TID 0000.0001)  MDSREADFIELD: opening global file: topog.box
(PID.TID 0000.0001) // =======================================================
(PID.TID 0000.0001) // Field Model R_low (ini_masks_etc) at iteration          1
(PID.TID 0000.0001) // CMIN =         -2.000000000000000E+03
(PID.TID 0000.0001) // CMAX =         -2.000000000000000E+03
(PID.TID 0000.0001) // CINT =          0.000000000000000E+00
(PID.TID 0000.0001) // SYMBOLS (CMIN->CMAX): -abcdefghijklmnopqrstuvwxyz+
(PID.TID 0000.0001) //                  0.0: .
(PID.TID 0000.0001) // RANGE I (Lo:Hi:Step):(  -1:  62:   1)
(PID.TID 0000.0001) // RANGE J (Lo:Hi:Step):(  62:  -1:  -1)
(PID.TID 0000.0001) // RANGE K (Lo:Hi:Step):(   1:   1:   1)
(PID.TID 0000.0001) // =======================================================
(PID.TID 0000.0001) // =======================================================
(PID.TID 0000.0001) // END OF FIELD                                          =
(PID.TID 0000.0001) // =======================================================
(PID.TID 0000.0001) 
(PID.TID 0000.0001) // =======================================================
(PID.TID 0000.0001) // Field Model Ro_surf (ini_masks_etc) at iteration          1
(PID.TID 0000.0001) // CMIN =          1.000000000000000E+32
(PID.TID 0000.0001) // CMAX =         -1.000000000000000E+32
(PID.TID 0000.0001) // CINT =          0.000000000000000E+00
(PID.TID 0000.0001) // SYMBOLS (CMIN->CMAX): -abcdefghijklmnopqrstuvwxyz+
(PID.TID 0000.0001) //                  0.0: .
(PID.TID 0000.0001) // RANGE I (Lo:Hi:Step):(  -1:  62:   1)
(PID.TID 0000.0001) // RANGE J (Lo:Hi:Step):(  62:  -1:  -1)
(PID.TID 0000.0001) // RANGE K (Lo:Hi:Step):(   1:   1:   1)
(PID.TID 0000.0001) // =======================================================
(PID.TID 0000.0001) // =======================================================
(PID.TID 0000.0001) // END OF FIELD                                          =
(PID.TID 0000.0001) // =======================================================
(PID.TID 0000.0001) 
(PID.TID 0000.0001) // =======================================================
(PID.TID 0000.0001) // Field hFacC at iteration          1
(PID.TID 0000.0001) // CMIN =          1.000000000000000E+00
(PID.TID 0000.0001) // CMAX =          1.000000000000000E+00
(PID.TID 0000.0001) // CINT =          0.000000000000000E+00
(PID.TID 0000.0001) // SYMBOLS (CMIN->CMAX): -abcdefghijklmnopqrstuvwxyz+
(PID.TID 0000.0001) //                  0.0: .
(PID.TID 0000.0001) // RANGE I (Lo:Hi:Step):(  -1:  62:   1)
(PID.TID 0000.0001) // RANGE J (Lo:Hi:Step):(  62:  -1:  -1)
(PID.TID 0000.0001) // RANGE K (Lo:Hi:Step):(   1:   1:   1)
(PID.TID 0000.0001) // =======================================================
(PID.TID 0000.0001) // =======================================================
(PID.TID 0000.0001) // END OF FIELD                                          =
(PID.TID 0000.0001) // =======================================================
(PID.TID 0000.0001) 
(PID.TID 0000.0001) // =======================================================
(PID.TID 0000.0001) // Field hFacW at iteration          1
(PID.TID 0000.0001) // CMIN =          1.000000000000000E+00
(PID.TID 0000.0001) // CMAX =          1.000000000000000E+00
(PID.TID 0000.0001) // CINT =          0.000000000000000E+00
(PID.TID 0000.0001) // SYMBOLS (CMIN->CMAX): -abcdefghijklmnopqrstuvwxyz+
(PID.TID 0000.0001) //                  0.0: .
(PID.TID 0000.0001) // RANGE I (Lo:Hi:Step):(  -1:  62:   1)
(PID.TID 0000.0001) // RANGE J (Lo:Hi:Step):(  62:  -1:  -1)
(PID.TID 0000.0001) // RANGE K (Lo:Hi:Step):(   1:   1:   1)
(PID.TID 0000.0001) // =======================================================
(PID.TID 0000.0001) // =======================================================
(PID.TID 0000.0001) // END OF FIELD                                          =
(PID.TID 0000.0001) // =======================================================
(PID.TID 0000.0001) 
(PID.TID 0000.0001) // =======================================================
(PID.TID 0000.0001) // Field hFacS at iteration          1
(PID.TID 0000.0001) // CMIN =          1.000000000000000E+00
(PID.TID 0000.0001) // CMAX =          1.000000000000000E+00
(PID.TID 0000.0001) // CINT =          0.000000000000000E+00
(PID.TID 0000.0001) // SYMBOLS (CMIN->CMAX): -abcdefghijklmnopqrstuvwxyz+
(PID.TID 0000.0001) //                  0.0: .
(PID.TID 0000.0001) // RANGE I (Lo:Hi:Step):(  -1:  62:   1)
(PID.TID 0000.0001) // RANGE J (Lo:Hi:Step):(  62:  -1:  -1)
(PID.TID 0000.0001) // RANGE K (Lo:Hi:Step):(   1:   1:   1)
(PID.TID 0000.0001) // =======================================================
(PID.TID 0000.0001) // =======================================================
(PID.TID 0000.0001) // END OF FIELD                                          =
(PID.TID 0000.0001) // =======================================================
(PID.TID 0000.0001) 
(PID.TID 0000.0001) 
(PID.TID 0000.0001) // ===================================
(PID.TID 0000.0001) // GAD parameters :
(PID.TID 0000.0001) // ===================================
(PID.TID 0000.0001) tempAdvScheme =   /* Temp. Horiz.Advection scheme selector */
(PID.TID 0000.0001)                       2
(PID.TID 0000.0001)     ;
(PID.TID 0000.0001) tempVertAdvScheme =   /* Temp. Vert. Advection scheme selector */
(PID.TID 0000.0001)                       2
(PID.TID 0000.0001)     ;
(PID.TID 0000.0001) tempMultiDimAdvec =   /* use Muti-Dim Advec method for Temp */
(PID.TID 0000.0001)                   F
(PID.TID 0000.0001)     ;
(PID.TID 0000.0001) tempAdamsBashforth =   /* use Adams-Bashforth time-stepping for Temp */
(PID.TID 0000.0001)                   T
(PID.TID 0000.0001)     ;
(PID.TID 0000.0001) saltAdvScheme =   /* Salt. Horiz.advection scheme selector */
(PID.TID 0000.0001)                       2
(PID.TID 0000.0001)     ;
(PID.TID 0000.0001) saltVertAdvScheme =   /* Salt. Vert. Advection scheme selector */
(PID.TID 0000.0001)                       2
(PID.TID 0000.0001)     ;
(PID.TID 0000.0001) saltMultiDimAdvec =   /* use Muti-Dim Advec method for Salt */
(PID.TID 0000.0001)                   F
(PID.TID 0000.0001)     ;
(PID.TID 0000.0001) saltAdamsBashforth =   /* use Adams-Bashforth time-stepping for Salt */
(PID.TID 0000.0001)                   T
(PID.TID 0000.0001)     ;
(PID.TID 0000.0001) // ===================================
(PID.TID 0000.0001) %MON fCori_max                    =   1.0000000000000E-04
(PID.TID 0000.0001) %MON fCori_min                    =   1.0000000000000E-04
(PID.TID 0000.0001) %MON fCori_mean                   =   1.0000000000000E-04
(PID.TID 0000.0001) %MON fCori_sd                     =   1.7211709488207E-18
(PID.TID 0000.0001) %MON fCoriG_max                   =   1.0000000000000E-04
(PID.TID 0000.0001) %MON fCoriG_min                   =   1.0000000000000E-04
(PID.TID 0000.0001) %MON fCoriG_mean                  =   1.0000000000000E-04
(PID.TID 0000.0001) %MON fCoriG_sd                    =   1.7211709488207E-18
(PID.TID 0000.0001) %MON fCoriCos_max                 =   0.0000000000000E+00
(PID.TID 0000.0001) %MON fCoriCos_min                 =   0.0000000000000E+00
(PID.TID 0000.0001) %MON fCoriCos_mean                =   0.0000000000000E+00
(PID.TID 0000.0001) %MON fCoriCos_sd                  =   0.0000000000000E+00
(PID.TID 0000.0001) // CG2D normalisation factor =          0.4999999999999999019881236E-03
(PID.TID 0000.0001) 
(PID.TID 0000.0001) CONFIG_CHECK: OK
(PID.TID 0000.0001) // =======================================================
(PID.TID 0000.0001) // Model configuration
(PID.TID 0000.0001) // =======================================================
(PID.TID 0000.0001) //
(PID.TID 0000.0001) // "Physical" paramters ( PARM01 in namelist )
(PID.TID 0000.0001) //
(PID.TID 0000.0001) buoyancyRelation = OCEANIC
(PID.TID 0000.0001) fluidIsAir  =  /* fluid major constituent is Air */
(PID.TID 0000.0001)                   F
(PID.TID 0000.0001)     ;
(PID.TID 0000.0001) fluidIsWater=  /* fuild major constituent is Water */
(PID.TID 0000.0001)                   T
(PID.TID 0000.0001)     ;
(PID.TID 0000.0001) usingPCoords =  /* use p (or p*) vertical coordinate */
(PID.TID 0000.0001)                   F
(PID.TID 0000.0001)     ;
(PID.TID 0000.0001) usingZCoords =  /* use z (or z*) vertical coordinate */
(PID.TID 0000.0001)                   T
(PID.TID 0000.0001)     ;
(PID.TID 0000.0001) tRef =   /* Reference temperature profile ( oC or oK ) */
(PID.TID 0000.0001)                 2.000000000000000E+01,      /* K =  1 */
(PID.TID 0000.0001)                 1.000000000000000E+01,      /* K =  2 */
(PID.TID 0000.0001)                 8.000000000000000E+00,      /* K =  3 */
(PID.TID 0000.0001)                 6.000000000000000E+00       /* K =  4 */
(PID.TID 0000.0001)     ;
(PID.TID 0000.0001) sRef =   /* Reference salinity profile ( ppt ) */
(PID.TID 0000.0001)     4 @  1.000000000000000E+01              /* K =  1:  4 */
(PID.TID 0000.0001)     ;
(PID.TID 0000.0001) viscAh =   /* Lateral eddy viscosity ( m^2/s ) */
(PID.TID 0000.0001)                 4.000000000000000E+02
(PID.TID 0000.0001)     ;
(PID.TID 0000.0001) viscAhMax =   /* Maximum lateral eddy viscosity ( m^2/s ) */
(PID.TID 0000.0001)                 1.000000000000000E+21
(PID.TID 0000.0001)     ;
(PID.TID 0000.0001) viscAhGrid =   /* Grid dependent lateral eddy viscosity ( non-dim. ) */
(PID.TID 0000.0001)                 0.000000000000000E+00
(PID.TID 0000.0001)     ;
(PID.TID 0000.0001) viscC2leith =   /* Leith harmonic viscosity factor ( non-dom. ) */
(PID.TID 0000.0001)                 0.000000000000000E+00
(PID.TID 0000.0001)     ;
(PID.TID 0000.0001) viscA4 =   /* Lateral biharmonic viscosity ( m^4/s ) */
(PID.TID 0000.0001)                 0.000000000000000E+00
(PID.TID 0000.0001)     ;
(PID.TID 0000.0001) viscA4Max =   /* Maximum biharmonic viscosity ( m^2/s ) */
(PID.TID 0000.0001)                 1.000000000000000E+21
(PID.TID 0000.0001)     ;
(PID.TID 0000.0001) viscA4Grid =   /* Grid dependent biharmonic viscosity ( non-dim. ) */
(PID.TID 0000.0001)                 0.000000000000000E+00
(PID.TID 0000.0001)     ;
(PID.TID 0000.0001) viscC4leith =   /* Leith biharmonic viscosity factor ( non-dom. ) */
(PID.TID 0000.0001)                 0.000000000000000E+00
(PID.TID 0000.0001)     ;
(PID.TID 0000.0001) no_slip_sides =  /* Viscous BCs: No-slip sides */
(PID.TID 0000.0001)                   F
(PID.TID 0000.0001)     ;
(PID.TID 0000.0001) viscAr =   /* Vertical eddy viscosity ( units of r^2/s ) */
(PID.TID 0000.0001)                 1.000000000000000E-02
(PID.TID 0000.0001)     ;
(PID.TID 0000.0001) no_slip_bottom =  /* Viscous BCs: No-slip bottom */
(PID.TID 0000.0001)                   T
(PID.TID 0000.0001)     ;
(PID.TID 0000.0001) diffKhT =   /* Laplacian diffusion of heat laterally ( m^2/s ) */
(PID.TID 0000.0001)                 4.000000000000000E+02
(PID.TID 0000.0001)     ;
(PID.TID 0000.0001) diffK4T =   /* Bihaarmonic diffusion of heat laterally ( m^4/s ) */
(PID.TID 0000.0001)                 0.000000000000000E+00
(PID.TID 0000.0001)     ;
(PID.TID 0000.0001) diffKhS =   /* Laplacian diffusion of salt laterally ( m^2/s ) */
(PID.TID 0000.0001)                 0.000000000000000E+00
(PID.TID 0000.0001)     ;
(PID.TID 0000.0001) diffK4S =   /* Bihaarmonic diffusion of salt laterally ( m^4/s ) */
(PID.TID 0000.0001)                 0.000000000000000E+00
(PID.TID 0000.0001)     ;
(PID.TID 0000.0001) diffKrNrT = /* vertical profile of vertical diffusion of Temp ( m^2/s )*/
(PID.TID 0000.0001)     4 @  1.000000000000000E-02              /* K =  1:  4 */
(PID.TID 0000.0001)     ;
(PID.TID 0000.0001) diffKrNrS = /* vertical profile of vertical diffusion of Salt ( m^2/s )*/
(PID.TID 0000.0001)     4 @  0.000000000000000E+00              /* K =  1:  4 */
(PID.TID 0000.0001)     ;
(PID.TID 0000.0001) diffKrBL79surf =   /* Surface diffusion for Bryan and Lewis 1979 ( m^2/s ) */
(PID.TID 0000.0001)                 0.000000000000000E+00
(PID.TID 0000.0001)     ;
(PID.TID 0000.0001) diffKrBL79deep =   /* Deep diffusion for Bryan and Lewis 1979 ( m^2/s ) */
(PID.TID 0000.0001)                 0.000000000000000E+00
(PID.TID 0000.0001)     ;
(PID.TID 0000.0001) diffKrBL79scl =   /* Depth scale for Bryan and Lewis 1979 ( m ) */
(PID.TID 0000.0001)                 2.000000000000000E+02
(PID.TID 0000.0001)     ;
(PID.TID 0000.0001) diffKrBL79Ho =   /* Turning depth for Bryan and Lewis 1979 ( m ) */
(PID.TID 0000.0001)                -2.000000000000000E+03
(PID.TID 0000.0001)     ;
(PID.TID 0000.0001)  Equation of State : eosType = LINEAR
(PID.TID 0000.0001) tAlpha =   /* Linear EOS thermal expansion coefficient ( 1/degree ) */
(PID.TID 0000.0001)                 2.000000000000000E-04
(PID.TID 0000.0001)     ;
(PID.TID 0000.0001) sBeta =   /* Linear EOS haline contraction coefficient ( 1/ppt ) */
(PID.TID 0000.0001)                 0.000000000000000E+00
(PID.TID 0000.0001)     ;
(PID.TID 0000.0001) rhonil =   /* Reference density ( kg/m^3 ) */
(PID.TID 0000.0001)                 9.998000000000000E+02
(PID.TID 0000.0001)     ;
(PID.TID 0000.0001) rhoConst =   /* Reference density ( kg/m^3 ) */
(PID.TID 0000.0001)                 9.998000000000000E+02
(PID.TID 0000.0001)     ;
(PID.TID 0000.0001) rhoConstFresh =   /* Reference density ( kg/m^3 ) */
(PID.TID 0000.0001)                 9.998000000000000E+02
(PID.TID 0000.0001)     ;
(PID.TID 0000.0001) gravity =   /* Gravitational acceleration ( m/s^2 ) */
(PID.TID 0000.0001)                 9.810000000000000E+00
(PID.TID 0000.0001)     ;
(PID.TID 0000.0001) gBaro =   /* Barotropic gravity ( m/s^2 ) */
(PID.TID 0000.0001)                 9.810000000000000E+00
(PID.TID 0000.0001)     ;
(PID.TID 0000.0001) rotationPeriod =   /* Rotation Period ( s ) */
(PID.TID 0000.0001)                 8.640000000000000E+04
(PID.TID 0000.0001)     ;
(PID.TID 0000.0001) omega =   /* Angular velocity ( rad/s ) */
(PID.TID 0000.0001)                 7.272205216643040E-05
(PID.TID 0000.0001)     ;
(PID.TID 0000.0001) f0 =   /* Reference coriolis parameter ( 1/s ) */
(PID.TID 0000.0001)                 1.000000000000000E-04
(PID.TID 0000.0001)     ;
(PID.TID 0000.0001) beta =   /* Beta ( 1/(m.s) ) */
(PID.TID 0000.0001)                 0.000000000000000E+00
(PID.TID 0000.0001)     ;
(PID.TID 0000.0001) freeSurfFac =   /* Implicit free surface factor */
(PID.TID 0000.0001)                 1.000000000000000E+00
(PID.TID 0000.0001)     ;
(PID.TID 0000.0001) implicitFreeSurface =   /* Implicit free surface on/off flag */
(PID.TID 0000.0001)                   T
(PID.TID 0000.0001)     ;
(PID.TID 0000.0001) rigidLid =   /* Rigid lid on/off flag */
(PID.TID 0000.0001)                   F
(PID.TID 0000.0001)     ;
(PID.TID 0000.0001) implicSurfPress =   /* Surface Pressure implicit factor (0-1)*/
(PID.TID 0000.0001)                 1.000000000000000E+00
(PID.TID 0000.0001)     ;
(PID.TID 0000.0001) implicDiv2Dflow =   /* Barot. Flow Div. implicit factor (0-1)*/
(PID.TID 0000.0001)                 1.000000000000000E+00
(PID.TID 0000.0001)     ;
(PID.TID 0000.0001) exactConserv =   /* Exact Volume Conservation on/off flag*/
(PID.TID 0000.0001)                   F
(PID.TID 0000.0001)     ;
(PID.TID 0000.0001) uniformLin_PhiSurf =   /* use uniform Bo_surf on/off flag*/
(PID.TID 0000.0001)                   T
(PID.TID 0000.0001)     ;
(PID.TID 0000.0001) nonlinFreeSurf =   /* Non-linear Free Surf. options (-1,0,1,2,3)*/
(PID.TID 0000.0001)                       0
(PID.TID 0000.0001)     ;
(PID.TID 0000.0001)      -1,0= Off ; 1,2,3= On, 2=+rescale gU,gV, 3=+update cg2d solv.
(PID.TID 0000.0001) hFacInf =   /* lower threshold for hFac (nonlinFreeSurf only)*/
(PID.TID 0000.0001)                 2.000000000000000E-01
(PID.TID 0000.0001)     ;
(PID.TID 0000.0001) hFacSup =   /* upper threshold for hFac (nonlinFreeSurf only)*/
(PID.TID 0000.0001)                 2.000000000000000E+00
(PID.TID 0000.0001)     ;
(PID.TID 0000.0001) select_rStar =   /* r* Coordinate options (not yet implemented)*/
(PID.TID 0000.0001)                       0
(PID.TID 0000.0001)     ;
(PID.TID 0000.0001) useRealFreshWaterFlux =   /* Real Fresh Water Flux on/off flag*/
(PID.TID 0000.0001)                   F
(PID.TID 0000.0001)     ;
(PID.TID 0000.0001) convertFW2Salt = /* convert F.W. Flux to Salt Flux (-1=use local S)(ppt)*/
(PID.TID 0000.0001)                 3.500000000000000E+01
(PID.TID 0000.0001)     ;
(PID.TID 0000.0001) nonHydrostatic =  /* Non-Hydrostatic on/off flag */
(PID.TID 0000.0001)                   F
(PID.TID 0000.0001)     ;
(PID.TID 0000.0001) momStepping =  /* Momentum equation on/off flag */
(PID.TID 0000.0001)                   T
(PID.TID 0000.0001)     ;
(PID.TID 0000.0001) momAdvection =  /* Momentum advection on/off flag */
(PID.TID 0000.0001)                   T
(PID.TID 0000.0001)     ;
(PID.TID 0000.0001) momViscosity =  /* Momentum viscosity on/off flag */
(PID.TID 0000.0001)                   T
(PID.TID 0000.0001)     ;
(PID.TID 0000.0001) momImplVertAdv =/* Momentum implicit vert. advection on/off*/
(PID.TID 0000.0001)                   F
(PID.TID 0000.0001)     ;
(PID.TID 0000.0001) implicitViscosity = /* Implicit viscosity on/off flag */
(PID.TID 0000.0001)                   F
(PID.TID 0000.0001)     ;
(PID.TID 0000.0001) useCoriolis =  /* Coriolis on/off flag */
(PID.TID 0000.0001)                   T
(PID.TID 0000.0001)     ;
(PID.TID 0000.0001) useCDscheme =  /* CD scheme on/off flag */
(PID.TID 0000.0001)                   F
(PID.TID 0000.0001)     ;
(PID.TID 0000.0001) useJamartWetPoints= /* Coriolis WetPoints method flag */
(PID.TID 0000.0001)                   F
(PID.TID 0000.0001)     ;
(PID.TID 0000.0001) useJamartMomAdv= /* V.I. Non-linear terms Jamart flag */
(PID.TID 0000.0001)                   F
(PID.TID 0000.0001)     ;
(PID.TID 0000.0001) SadournyCoriolis= /* Sadourny Coriolis discr. flag */
(PID.TID 0000.0001)                   F
(PID.TID 0000.0001)     ;
(PID.TID 0000.0001) upwindVorticity= /* Upwind bias vorticity flag */
(PID.TID 0000.0001)                   F
(PID.TID 0000.0001)     ;
(PID.TID 0000.0001) useAbsVorticity= /* Work with f+zeta in Coriolis */
(PID.TID 0000.0001)                   F
(PID.TID 0000.0001)     ;
(PID.TID 0000.0001) highOrderVorticity= /* High order interp. of vort. flag */
(PID.TID 0000.0001)                   F
(PID.TID 0000.0001)     ;
(PID.TID 0000.0001) momForcing =  /* Momentum forcing on/off flag */
(PID.TID 0000.0001)                   T
(PID.TID 0000.0001)     ;
(PID.TID 0000.0001) momPressureForcing =  /* Momentum pressure term on/off flag */
(PID.TID 0000.0001)                   T
(PID.TID 0000.0001)     ;
(PID.TID 0000.0001) staggerTimeStep =   /* Stagger time stepping on/off flag */
(PID.TID 0000.0001)                   F
(PID.TID 0000.0001)     ;
(PID.TID 0000.0001) multiDimAdvection =   /* enable/disable Multi-Dim Advection */
(PID.TID 0000.0001)                   T
(PID.TID 0000.0001)     ;
(PID.TID 0000.0001) useMultiDimAdvec =   /* Multi-Dim Advection is/is-not used */
(PID.TID 0000.0001)                   F
(PID.TID 0000.0001)     ;
(PID.TID 0000.0001) implicitDiffusion =/* Implicit Diffusion on/off flag */
(PID.TID 0000.0001)                   F
(PID.TID 0000.0001)     ;
(PID.TID 0000.0001) tempStepping =  /* Temperature equation on/off flag */
(PID.TID 0000.0001)                   T
(PID.TID 0000.0001)     ;
(PID.TID 0000.0001) tempAdvection=  /* Temperature advection on/off flag */
(PID.TID 0000.0001)                   T
(PID.TID 0000.0001)     ;
(PID.TID 0000.0001) tempImplVertAdv =/* Temp. implicit vert. advection on/off */
(PID.TID 0000.0001)                   F
(PID.TID 0000.0001)     ;
(PID.TID 0000.0001) tempForcing  =  /* Temperature forcing on/off flag */
(PID.TID 0000.0001)                   T
(PID.TID 0000.0001)     ;
(PID.TID 0000.0001) saltStepping =  /* Salinity equation on/off flag */
(PID.TID 0000.0001)                   T
(PID.TID 0000.0001)     ;
(PID.TID 0000.0001) saltAdvection=  /* Salinity advection on/off flag */
(PID.TID 0000.0001)                   T
(PID.TID 0000.0001)     ;
(PID.TID 0000.0001) saltImplVertAdv =/* Sali. implicit vert. advection on/off */
(PID.TID 0000.0001)                   F
(PID.TID 0000.0001)     ;
(PID.TID 0000.0001) saltForcing  =  /* Salinity forcing on/off flag */
(PID.TID 0000.0001)                   T
(PID.TID 0000.0001)     ;
(PID.TID 0000.0001) //
(PID.TID 0000.0001) // Elliptic solver(s) paramters ( PARM02 in namelist )
(PID.TID 0000.0001) //
(PID.TID 0000.0001) cg2dMaxIters =   /* Upper limit on 2d con. grad iterations  */
(PID.TID 0000.0001)                    1000
(PID.TID 0000.0001)     ;
(PID.TID 0000.0001) cg2dChkResFreq =   /* 2d con. grad convergence test frequency */
(PID.TID 0000.0001)                       1
(PID.TID 0000.0001)     ;
(PID.TID 0000.0001) cg2dTargetResidual =   /* 2d con. grad target residual  */
(PID.TID 0000.0001)                 1.000000000000000E-13
(PID.TID 0000.0001)     ;
(PID.TID 0000.0001) cg2dTargetResWunit =   /* CG2d target residual [W units] */
(PID.TID 0000.0001)                -1.000000000000000E+00
(PID.TID 0000.0001)     ;
(PID.TID 0000.0001) cg2dPreCondFreq =   /* Freq. for updating cg2d preconditioner */
(PID.TID 0000.0001)                       1
(PID.TID 0000.0001)     ;
(PID.TID 0000.0001) //
(PID.TID 0000.0001) // Time stepping paramters ( PARM03 in namelist )
(PID.TID 0000.0001) //
(PID.TID 0000.0001) nIter0 =   /* Base timestep number  */
(PID.TID 0000.0001)                       0
(PID.TID 0000.0001)     ;
(PID.TID 0000.0001) nTimeSteps =   /* Number of timesteps */
(PID.TID 0000.0001)                      40
(PID.TID 0000.0001)     ;
(PID.TID 0000.0001) deltatTmom =   /* Momentum equation timestep ( s ) */
(PID.TID 0000.0001)                 1.200000000000000E+03
(PID.TID 0000.0001)     ;
(PID.TID 0000.0001) deltaTfreesurf =   /* FreeSurface equation timestep ( s ) */
(PID.TID 0000.0001)                 1.200000000000000E+03
(PID.TID 0000.0001)     ;
(PID.TID 0000.0001) dTtracerLev =   /* Tracer equation timestep ( s ) */
(PID.TID 0000.0001)     4 @  1.200000000000000E+03              /* K =  1:  4 */
(PID.TID 0000.0001)     ;
(PID.TID 0000.0001) deltatTClock  =   /* Model clock timestep ( s ) */
(PID.TID 0000.0001)                 1.200000000000000E+03
(PID.TID 0000.0001)     ;
(PID.TID 0000.0001) cAdjFreq =   /* Convective adjustment interval ( s ) */
(PID.TID 0000.0001)                 0.000000000000000E+00
(PID.TID 0000.0001)     ;
(PID.TID 0000.0001) forcing_In_AB =   /* put T,S Forcing in Adams-Bash. stepping */
(PID.TID 0000.0001)                   T
(PID.TID 0000.0001)     ;
(PID.TID 0000.0001) abeps =   /* Adams-Bashforth stabilizing weight */
(PID.TID 0000.0001)                 1.000000000000000E-01
(PID.TID 0000.0001)     ;
(PID.TID 0000.0001) startTime =   /* Run start time ( s ). */
(PID.TID 0000.0001)                 0.000000000000000E+00
(PID.TID 0000.0001)     ;
(PID.TID 0000.0001) endTime =   /* Integration ending time ( s ). */
(PID.TID 0000.0001)                 4.800000000000000E+04
(PID.TID 0000.0001)     ;
(PID.TID 0000.0001) pChkPtFreq =   /* Permanent restart/checkpoint file interval ( s ). */
(PID.TID 0000.0001)                 1.700000000000000E+04
(PID.TID 0000.0001)     ;
(PID.TID 0000.0001) chkPtFreq =   /* Rolling restart/checkpoint file interval ( s ). */
(PID.TID 0000.0001)                 0.000000000000000E+00
(PID.TID 0000.0001)     ;
(PID.TID 0000.0001) pickup_write_mdsio =   /* Model IO flag. */
(PID.TID 0000.0001)                   T
(PID.TID 0000.0001)     ;
(PID.TID 0000.0001) pickup_read_mdsio =   /* Model IO flag. */
(PID.TID 0000.0001)                   T
(PID.TID 0000.0001)     ;
(PID.TID 0000.0001) pickup_write_immed =   /* Model IO flag. */
(PID.TID 0000.0001)                   F
(PID.TID 0000.0001)     ;
(PID.TID 0000.0001) dumpFreq =   /* Model state write out interval ( s ). */
(PID.TID 0000.0001)                 2.592000000000000E+06
(PID.TID 0000.0001)     ;
(PID.TID 0000.0001) snapshot_mdsio =   /* Model IO flag. */
(PID.TID 0000.0001)                   T
(PID.TID 0000.0001)     ;
(PID.TID 0000.0001) monitorFreq =   /* Monitor output interval ( s ). */
(PID.TID 0000.0001)                 1.000000000000000E+00
(PID.TID 0000.0001)     ;
(PID.TID 0000.0001) monitor_stdio =   /* Model IO flag. */
(PID.TID 0000.0001)                   T
(PID.TID 0000.0001)     ;
(PID.TID 0000.0001) externForcingPeriod =   /* forcing period (s) */
(PID.TID 0000.0001)                 0.000000000000000E+00
(PID.TID 0000.0001)     ;
(PID.TID 0000.0001) externForcingCycle =   /* period of the cyle (s). */
(PID.TID 0000.0001)                 0.000000000000000E+00
(PID.TID 0000.0001)     ;
(PID.TID 0000.0001) tauThetaClimRelax =   /* relaxation time scale (s) */
(PID.TID 0000.0001)                 0.000000000000000E+00
(PID.TID 0000.0001)     ;
(PID.TID 0000.0001) tauSaltClimRelax =   /* relaxation time scale (s) */
(PID.TID 0000.0001)                 0.000000000000000E+00
(PID.TID 0000.0001)     ;
(PID.TID 0000.0001) latBandClimRelax =   /* max. Lat. where relaxation */
(PID.TID 0000.0001)                 3.600000000000000E+08
(PID.TID 0000.0001)     ;
(PID.TID 0000.0001) //
(PID.TID 0000.0001) // Gridding paramters ( PARM04 in namelist )
(PID.TID 0000.0001) //
(PID.TID 0000.0001) usingCartesianGrid =   /* Cartesian coordinates flag ( True / False ) */
(PID.TID 0000.0001)                   T
(PID.TID 0000.0001)     ;
(PID.TID 0000.0001) usingSphericalPolarGrid =   /* Spherical coordinates flag ( True / False ) */
(PID.TID 0000.0001)                   F
(PID.TID 0000.0001)     ;
(PID.TID 0000.0001) usingCylindricalGrid =   /* Spherical coordinates flag ( True / False ) */
(PID.TID 0000.0001)                   F
(PID.TID 0000.0001)     ;
(PID.TID 0000.0001) groundAtK1 =   /* Lower Boundary (ground) at the surface(k=1) ( T / F ) */
(PID.TID 0000.0001)                   F
(PID.TID 0000.0001)     ;
(PID.TID 0000.0001) Ro_SeaLevel =   /* r(1) ( units of r ) */
(PID.TID 0000.0001)                 0.000000000000000E+00
(PID.TID 0000.0001)     ;
(PID.TID 0000.0001) rkFac =   /* minus Vertical index orientation  */
(PID.TID 0000.0001)                 1.000000000000000E+00
(PID.TID 0000.0001)     ;
(PID.TID 0000.0001) horiVertRatio =   /* Ratio on units : Horiz - Vertical */
(PID.TID 0000.0001)                 1.000000000000000E+00
(PID.TID 0000.0001)     ;
(PID.TID 0000.0001) drC =   /* C spacing ( units of r ) */
(PID.TID 0000.0001)                 2.500000000000000E+02,      /* K =  1 */
(PID.TID 0000.0001)     3 @  5.000000000000000E+02              /* K =  2:  4 */
(PID.TID 0000.0001)     ;
(PID.TID 0000.0001) drF =   /* W spacing ( units of r ) */
(PID.TID 0000.0001)     4 @  5.000000000000000E+02              /* K =  1:  4 */
(PID.TID 0000.0001)     ;
(PID.TID 0000.0001) delX =   /* U spacing ( m - cartesian, degrees - spherical ) */
(PID.TID 0000.0001)    60 @  1.000000000000000E+05              /* I =  1: 60 */
(PID.TID 0000.0001)     ;
(PID.TID 0000.0001) delY =   /* V spacing ( m - cartesian, degrees - spherical ) */
(PID.TID 0000.0001)    60 @  1.000000000000000E+05              /* J =  1: 60 */
(PID.TID 0000.0001)     ;
(PID.TID 0000.0001) phiMin =    /* South edge (ignored - cartesian, degrees - spherical ) */
(PID.TID 0000.0001)                 0.000000000000000E+00
(PID.TID 0000.0001)     ;
(PID.TID 0000.0001) thetaMin =    /* West edge ( ignored - cartesian, degrees - spherical ) */
(PID.TID 0000.0001)                 0.000000000000000E+00
(PID.TID 0000.0001)     ;
(PID.TID 0000.0001) rSphere =    /* Radius ( ignored - cartesian, m - spherical ) */
(PID.TID 0000.0001)                 6.370000000000000E+06
(PID.TID 0000.0001)     ;
(PID.TID 0000.0001) xcoord =   /* P-point X coord ( m - cartesian, degrees - spherical ) */
(PID.TID 0000.0001)                 5.000000000000000E+04,      /* I =  1 */
(PID.TID 0000.0001)                 1.500000000000000E+05,      /* I =  2 */
(PID.TID 0000.0001)                 2.500000000000000E+05,      /* I =  3 */
(PID.TID 0000.0001)                 3.500000000000000E+05,      /* I =  4 */
(PID.TID 0000.0001)                 4.500000000000000E+05,      /* I =  5 */
(PID.TID 0000.0001)                 5.500000000000000E+05,      /* I =  6 */
(PID.TID 0000.0001)                 6.500000000000000E+05,      /* I =  7 */
(PID.TID 0000.0001)                 7.500000000000000E+05,      /* I =  8 */
(PID.TID 0000.0001)                 8.500000000000000E+05,      /* I =  9 */
(PID.TID 0000.0001)                 9.500000000000000E+05,      /* I = 10 */
(PID.TID 0000.0001)                 1.050000000000000E+06,      /* I = 11 */
(PID.TID 0000.0001)                 1.150000000000000E+06,      /* I = 12 */
(PID.TID 0000.0001)                 1.250000000000000E+06,      /* I = 13 */
(PID.TID 0000.0001)                 1.350000000000000E+06,      /* I = 14 */
(PID.TID 0000.0001)                 1.450000000000000E+06,      /* I = 15 */
(PID.TID 0000.0001)                 1.550000000000000E+06,      /* I = 16 */
(PID.TID 0000.0001)                 1.650000000000000E+06,      /* I = 17 */
(PID.TID 0000.0001)                 1.750000000000000E+06,      /* I = 18 */
(PID.TID 0000.0001)                 1.850000000000000E+06,      /* I = 19 */
(PID.TID 0000.0001)                 1.950000000000000E+06,      /* I = 20 */
(PID.TID 0000.0001)                 2.050000000000000E+06,      /* I = 21 */
(PID.TID 0000.0001)                 2.150000000000000E+06,      /* I = 22 */
(PID.TID 0000.0001)                 2.250000000000000E+06,      /* I = 23 */
(PID.TID 0000.0001)                 2.350000000000000E+06,      /* I = 24 */
(PID.TID 0000.0001)                 2.450000000000000E+06,      /* I = 25 */
(PID.TID 0000.0001)                 2.550000000000000E+06,      /* I = 26 */
(PID.TID 0000.0001)                 2.650000000000000E+06,      /* I = 27 */
(PID.TID 0000.0001)                 2.750000000000000E+06,      /* I = 28 */
(PID.TID 0000.0001)                 2.850000000000000E+06,      /* I = 29 */
(PID.TID 0000.0001)                 2.950000000000000E+06,      /* I = 30 */
(PID.TID 0000.0001)                 3.050000000000000E+06,      /* I = 31 */
(PID.TID 0000.0001)                 3.150000000000000E+06,      /* I = 32 */
(PID.TID 0000.0001)                 3.250000000000000E+06,      /* I = 33 */
(PID.TID 0000.0001)                 3.350000000000000E+06,      /* I = 34 */
(PID.TID 0000.0001)                 3.450000000000000E+06,      /* I = 35 */
(PID.TID 0000.0001)                 3.550000000000000E+06,      /* I = 36 */
(PID.TID 0000.0001)                 3.650000000000000E+06,      /* I = 37 */
(PID.TID 0000.0001)                 3.750000000000000E+06,      /* I = 38 */
(PID.TID 0000.0001)                 3.850000000000000E+06,      /* I = 39 */
(PID.TID 0000.0001)                 3.950000000000000E+06,      /* I = 40 */
(PID.TID 0000.0001)                 4.050000000000000E+06,      /* I = 41 */
(PID.TID 0000.0001)                 4.150000000000000E+06,      /* I = 42 */
(PID.TID 0000.0001)                 4.250000000000000E+06,      /* I = 43 */
(PID.TID 0000.0001)                 4.350000000000000E+06,      /* I = 44 */
(PID.TID 0000.0001)                 4.450000000000000E+06,      /* I = 45 */
(PID.TID 0000.0001)                 4.550000000000000E+06,      /* I = 46 */
(PID.TID 0000.0001)                 4.650000000000000E+06,      /* I = 47 */
(PID.TID 0000.0001)                 4.750000000000000E+06,      /* I = 48 */
(PID.TID 0000.0001)                 4.850000000000000E+06,      /* I = 49 */
(PID.TID 0000.0001)                 4.950000000000000E+06,      /* I = 50 */
(PID.TID 0000.0001)                 5.050000000000000E+06,      /* I = 51 */
(PID.TID 0000.0001)                 5.150000000000000E+06,      /* I = 52 */
(PID.TID 0000.0001)                 5.250000000000000E+06,      /* I = 53 */
(PID.TID 0000.0001)                 5.350000000000000E+06,      /* I = 54 */
(PID.TID 0000.0001)                 5.450000000000000E+06,      /* I = 55 */
(PID.TID 0000.0001)                 5.550000000000000E+06,      /* I = 56 */
(PID.TID 0000.0001)                 5.650000000000000E+06,      /* I = 57 */
(PID.TID 0000.0001)                 5.750000000000000E+06,      /* I = 58 */
(PID.TID 0000.0001)                 5.850000000000000E+06,      /* I = 59 */
(PID.TID 0000.0001)                 5.950000000000000E+06       /* I = 60 */
(PID.TID 0000.0001)     ;
(PID.TID 0000.0001) ycoord =   /* P-point Y coord ( m - cartesian, degrees - spherical ) */
(PID.TID 0000.0001)                 5.000000000000000E+04,      /* J =  1 */
(PID.TID 0000.0001)                 1.500000000000000E+05,      /* J =  2 */
(PID.TID 0000.0001)                 2.500000000000000E+05,      /* J =  3 */
(PID.TID 0000.0001)                 3.500000000000000E+05,      /* J =  4 */
(PID.TID 0000.0001)                 4.500000000000000E+05,      /* J =  5 */
(PID.TID 0000.0001)                 5.500000000000000E+05,      /* J =  6 */
(PID.TID 0000.0001)                 6.500000000000000E+05,      /* J =  7 */
(PID.TID 0000.0001)                 7.500000000000000E+05,      /* J =  8 */
(PID.TID 0000.0001)                 8.500000000000000E+05,      /* J =  9 */
(PID.TID 0000.0001)                 9.500000000000000E+05,      /* J = 10 */
(PID.TID 0000.0001)                 1.050000000000000E+06,      /* J = 11 */
(PID.TID 0000.0001)                 1.150000000000000E+06,      /* J = 12 */
(PID.TID 0000.0001)                 1.250000000000000E+06,      /* J = 13 */
(PID.TID 0000.0001)                 1.350000000000000E+06,      /* J = 14 */
(PID.TID 0000.0001)                 1.450000000000000E+06,      /* J = 15 */
(PID.TID 0000.0001)                 1.550000000000000E+06,      /* J = 16 */
(PID.TID 0000.0001)                 1.650000000000000E+06,      /* J = 17 */
(PID.TID 0000.0001)                 1.750000000000000E+06,      /* J = 18 */
(PID.TID 0000.0001)                 1.850000000000000E+06,      /* J = 19 */
(PID.TID 0000.0001)                 1.950000000000000E+06,      /* J = 20 */
(PID.TID 0000.0001)                 2.050000000000000E+06,      /* J = 21 */
(PID.TID 0000.0001)                 2.150000000000000E+06,      /* J = 22 */
(PID.TID 0000.0001)                 2.250000000000000E+06,      /* J = 23 */
(PID.TID 0000.0001)                 2.350000000000000E+06,      /* J = 24 */
(PID.TID 0000.0001)                 2.450000000000000E+06,      /* J = 25 */
(PID.TID 0000.0001)                 2.550000000000000E+06,      /* J = 26 */
(PID.TID 0000.0001)                 2.650000000000000E+06,      /* J = 27 */
(PID.TID 0000.0001)                 2.750000000000000E+06,      /* J = 28 */
(PID.TID 0000.0001)                 2.850000000000000E+06,      /* J = 29 */
(PID.TID 0000.0001)                 2.950000000000000E+06,      /* J = 30 */
(PID.TID 0000.0001)                 3.050000000000000E+06,      /* J = 31 */
(PID.TID 0000.0001)                 3.150000000000000E+06,      /* J = 32 */
(PID.TID 0000.0001)                 3.250000000000000E+06,      /* J = 33 */
(PID.TID 0000.0001)                 3.350000000000000E+06,      /* J = 34 */
(PID.TID 0000.0001)                 3.450000000000000E+06,      /* J = 35 */
(PID.TID 0000.0001)                 3.550000000000000E+06,      /* J = 36 */
(PID.TID 0000.0001)                 3.650000000000000E+06,      /* J = 37 */
(PID.TID 0000.0001)                 3.750000000000000E+06,      /* J = 38 */
(PID.TID 0000.0001)                 3.850000000000000E+06,      /* J = 39 */
(PID.TID 0000.0001)                 3.950000000000000E+06,      /* J = 40 */
(PID.TID 0000.0001)                 4.050000000000000E+06,      /* J = 41 */
(PID.TID 0000.0001)                 4.150000000000000E+06,      /* J = 42 */
(PID.TID 0000.0001)                 4.250000000000000E+06,      /* J = 43 */
(PID.TID 0000.0001)                 4.350000000000000E+06,      /* J = 44 */
(PID.TID 0000.0001)                 4.450000000000000E+06,      /* J = 45 */
(PID.TID 0000.0001)                 4.550000000000000E+06,      /* J = 46 */
(PID.TID 0000.0001)                 4.650000000000000E+06,      /* J = 47 */
(PID.TID 0000.0001)                 4.750000000000000E+06,      /* J = 48 */
(PID.TID 0000.0001)                 4.850000000000000E+06,      /* J = 49 */
(PID.TID 0000.0001)                 4.950000000000000E+06,      /* J = 50 */
(PID.TID 0000.0001)                 5.050000000000000E+06,      /* J = 51 */
(PID.TID 0000.0001)                 5.150000000000000E+06,      /* J = 52 */
(PID.TID 0000.0001)                 5.250000000000000E+06,      /* J = 53 */
(PID.TID 0000.0001)                 5.350000000000000E+06,      /* J = 54 */
(PID.TID 0000.0001)                 5.450000000000000E+06,      /* J = 55 */
(PID.TID 0000.0001)                 5.550000000000000E+06,      /* J = 56 */
(PID.TID 0000.0001)                 5.650000000000000E+06,      /* J = 57 */
(PID.TID 0000.0001)                 5.750000000000000E+06,      /* J = 58 */
(PID.TID 0000.0001)                 5.850000000000000E+06,      /* J = 59 */
(PID.TID 0000.0001)                 5.950000000000000E+06       /* J = 60 */
(PID.TID 0000.0001)     ;
(PID.TID 0000.0001) rcoord =   /* P-point R coordinate (  units of r ) */
(PID.TID 0000.0001)                -2.500000000000000E+02,      /* K =  1 */
(PID.TID 0000.0001)                -7.500000000000000E+02,      /* K =  2 */
(PID.TID 0000.0001)                -1.250000000000000E+03,      /* K =  3 */
(PID.TID 0000.0001)                -1.750000000000000E+03       /* K =  4 */
(PID.TID 0000.0001)     ;
(PID.TID 0000.0001) rF =   /* W-Interf. R coordinate (  units of r ) */
(PID.TID 0000.0001)                 0.000000000000000E+00,      /* K =  1 */
(PID.TID 0000.0001)                -5.000000000000000E+02,      /* K =  2 */
(PID.TID 0000.0001)                -1.000000000000000E+03,      /* K =  3 */
(PID.TID 0000.0001)                -1.500000000000000E+03,      /* K =  4 */
(PID.TID 0000.0001)                -2.000000000000000E+03       /* K =  5 */
(PID.TID 0000.0001)     ;
(PID.TID 0000.0001) dxF =  /* dxF(:,1,:,1) ( m - cartesian, degrees - spherical ) */
(PID.TID 0000.0001)    60 @  1.000000000000000E+05              /* I =  1: 60 */
(PID.TID 0000.0001)     ;
(PID.TID 0000.0001) dxF =  /* dxF(1,:,1,:) ( m - cartesian, degrees - spherical ) */
(PID.TID 0000.0001)    60 @  1.000000000000000E+05              /* J =  1: 60 */
(PID.TID 0000.0001)     ;
(PID.TID 0000.0001) dyF =  /* dyF(:,1,:,1) ( m - cartesian, degrees - spherical ) */
(PID.TID 0000.0001)    60 @  1.000000000000000E+05              /* I =  1: 60 */
(PID.TID 0000.0001)     ;
(PID.TID 0000.0001) dyF =  /* dyF(1,:,1,:) ( m - cartesian, degrees - spherical ) */
(PID.TID 0000.0001)    60 @  1.000000000000000E+05              /* J =  1: 60 */
(PID.TID 0000.0001)     ;
(PID.TID 0000.0001) dxG =  /* dxG(:,1,:,1) ( m - cartesian, degrees - spherical ) */
(PID.TID 0000.0001)    60 @  1.000000000000000E+05              /* I =  1: 60 */
(PID.TID 0000.0001)     ;
(PID.TID 0000.0001) dxG =  /* dxG(1,:,1,:) ( m - cartesian, degrees - spherical ) */
(PID.TID 0000.0001)    60 @  1.000000000000000E+05              /* J =  1: 60 */
(PID.TID 0000.0001)     ;
(PID.TID 0000.0001) dyG =  /* dyG(:,1,:,1) ( m - cartesian, degrees - spherical ) */
(PID.TID 0000.0001)    60 @  1.000000000000000E+05              /* I =  1: 60 */
(PID.TID 0000.0001)     ;
(PID.TID 0000.0001) dyG =  /* dyG(1,:,1,:) ( m - cartesian, degrees - spherical ) */
(PID.TID 0000.0001)    60 @  1.000000000000000E+05              /* J =  1: 60 */
(PID.TID 0000.0001)     ;
(PID.TID 0000.0001) dxC =  /* dxC(:,1,:,1) ( m - cartesian, degrees - spherical ) */
(PID.TID 0000.0001)    60 @  1.000000000000000E+05              /* I =  1: 60 */
(PID.TID 0000.0001)     ;
(PID.TID 0000.0001) dxC =  /* dxC(1,:,1,:) ( m - cartesian, degrees - spherical ) */
(PID.TID 0000.0001)    60 @  1.000000000000000E+05              /* J =  1: 60 */
(PID.TID 0000.0001)     ;
(PID.TID 0000.0001) dyC =  /* dyC(:,1,:,1) ( m - cartesian, degrees - spherical ) */
(PID.TID 0000.0001)    60 @  1.000000000000000E+05              /* I =  1: 60 */
(PID.TID 0000.0001)     ;
(PID.TID 0000.0001) dyC =  /* dyC(1,:,1,:) ( m - cartesian, degrees - spherical ) */
(PID.TID 0000.0001)    60 @  1.000000000000000E+05              /* J =  1: 60 */
(PID.TID 0000.0001)     ;
(PID.TID 0000.0001) dxV =  /* dxV(:,1,:,1) ( m - cartesian, degrees - spherical ) */
(PID.TID 0000.0001)    60 @  1.000000000000000E+05              /* I =  1: 60 */
(PID.TID 0000.0001)     ;
(PID.TID 0000.0001) dxV =  /* dxV(1,:,1,:) ( m - cartesian, degrees - spherical ) */
(PID.TID 0000.0001)    60 @  1.000000000000000E+05              /* J =  1: 60 */
(PID.TID 0000.0001)     ;
(PID.TID 0000.0001) dyU =  /* dyU(:,1,:,1) ( m - cartesian, degrees - spherical ) */
(PID.TID 0000.0001)    60 @  1.000000000000000E+05              /* I =  1: 60 */
(PID.TID 0000.0001)     ;
(PID.TID 0000.0001) dyU =  /* dyU(1,:,1,:) ( m - cartesian, degrees - spherical ) */
(PID.TID 0000.0001)    60 @  1.000000000000000E+05              /* J =  1: 60 */
(PID.TID 0000.0001)     ;
(PID.TID 0000.0001) rA =  /* rA(:,1,:,1) ( m - cartesian, degrees - spherical ) */
(PID.TID 0000.0001)    60 @  1.000000000000000E+10              /* I =  1: 60 */
(PID.TID 0000.0001)     ;
(PID.TID 0000.0001) rA =  /* rA(1,:,1,:) ( m - cartesian, degrees - spherical ) */
(PID.TID 0000.0001)    60 @  1.000000000000000E+10              /* J =  1: 60 */
(PID.TID 0000.0001)     ;
(PID.TID 0000.0001) rAw =  /* rAw(:,1,:,1) ( m - cartesian, degrees - spherical ) */
(PID.TID 0000.0001)    60 @  1.000000000000000E+10              /* I =  1: 60 */
(PID.TID 0000.0001)     ;
(PID.TID 0000.0001) rAw =  /* rAw(1,:,1,:) ( m - cartesian, degrees - spherical ) */
(PID.TID 0000.0001)    60 @  1.000000000000000E+10              /* J =  1: 60 */
(PID.TID 0000.0001)     ;
(PID.TID 0000.0001) rAs =  /* rAs(:,1,:,1) ( m - cartesian, degrees - spherical ) */
(PID.TID 0000.0001)    60 @  1.000000000000000E+10              /* I =  1: 60 */
(PID.TID 0000.0001)     ;
(PID.TID 0000.0001) rAs =  /* rAs(1,:,1,:) ( m - cartesian, degrees - spherical ) */
(PID.TID 0000.0001)    60 @  1.000000000000000E+10              /* J =  1: 60 */
(PID.TID 0000.0001)     ;
(PID.TID 0000.0001) 
(PID.TID 0000.0001) // =======================================================
(PID.TID 0000.0001) // Field Initial Temperature at iteration          1
(PID.TID 0000.0001) // CMIN =          2.000000000000000E+01
(PID.TID 0000.0001) // CMAX =          2.000000000000000E+01
(PID.TID 0000.0001) // CINT =          0.000000000000000E+00
(PID.TID 0000.0001) // SYMBOLS (CMIN->CMAX): -abcdefghijklmnopqrstuvwxyz+
(PID.TID 0000.0001) //                  0.0: .
(PID.TID 0000.0001) // RANGE I (Lo:Hi:Step):(   1:  60:   1)
(PID.TID 0000.0001) // RANGE J (Lo:Hi:Step):(  60:   1:  -1)
(PID.TID 0000.0001) // RANGE K (Lo:Hi:Step):(   1:   1:   1)
(PID.TID 0000.0001) // =======================================================
(PID.TID 0000.0001) // =======================================================
(PID.TID 0000.0001) // END OF FIELD                                          =
(PID.TID 0000.0001) // =======================================================
(PID.TID 0000.0001) 
(PID.TID 0000.0001) // =======================================================
(PID.TID 0000.0001) // Field Initial Salinity at iteration          1
(PID.TID 0000.0001) // CMIN =          1.000000000000000E+01
(PID.TID 0000.0001) // CMAX =          1.000000000000000E+01
(PID.TID 0000.0001) // CINT =          0.000000000000000E+00
(PID.TID 0000.0001) // SYMBOLS (CMIN->CMAX): -abcdefghijklmnopqrstuvwxyz+
(PID.TID 0000.0001) //                  0.0: .
(PID.TID 0000.0001) // RANGE I (Lo:Hi:Step):(   1:  60:   1)
(PID.TID 0000.0001) // RANGE J (Lo:Hi:Step):(  60:   1:  -1)
(PID.TID 0000.0001) // RANGE K (Lo:Hi:Step):(   1:   1:   1)
(PID.TID 0000.0001) // =======================================================
(PID.TID 0000.0001) // =======================================================
(PID.TID 0000.0001) // END OF FIELD                                          =
(PID.TID 0000.0001) // =======================================================
(PID.TID 0000.0001) 
(PID.TID 0000.0001) Start initial hydrostatic pressure computation
(PID.TID 0000.0001) Pressure is predetermined for buoyancyRelation OCEANIC
(PID.TID 0000.0001) 
(PID.TID 0000.0001)  MDSREADFIELD: opening global file: pLoad.bin
(PID.TID 0000.0001) // =======================================================
(PID.TID 0000.0001) // Model current state
(PID.TID 0000.0001) // =======================================================
(PID.TID 0000.0001) 
(PID.TID 0000.0001) // =======================================================
(PID.TID 0000.0001) // Begin MONITOR dynamic field statistics
(PID.TID 0000.0001) // =======================================================
(PID.TID 0000.0001) %MON time_tsnumber                =                     0
(PID.TID 0000.0001) %MON time_secondsf                =   0.0000000000000E+00
(PID.TID 0000.0001) %MON dynstat_eta_max              =   0.0000000000000E+00
(PID.TID 0000.0001) %MON dynstat_eta_min              =   0.0000000000000E+00
(PID.TID 0000.0001) %MON dynstat_eta_mean             =   0.0000000000000E+00
(PID.TID 0000.0001) %MON dynstat_eta_sd               =   0.0000000000000E+00
(PID.TID 0000.0001) %MON dynstat_eta_del2             =   0.0000000000000E+00
(PID.TID 0000.0001) %MON dynstat_uvel_max             =   0.0000000000000E+00
(PID.TID 0000.0001) %MON dynstat_uvel_min             =   0.0000000000000E+00
(PID.TID 0000.0001) %MON dynstat_uvel_mean            =   0.0000000000000E+00
(PID.TID 0000.0001) %MON dynstat_uvel_sd              =   0.0000000000000E+00
(PID.TID 0000.0001) %MON dynstat_uvel_del2            =   0.0000000000000E+00
(PID.TID 0000.0001) %MON dynstat_vvel_max             =   0.0000000000000E+00
(PID.TID 0000.0001) %MON dynstat_vvel_min             =   0.0000000000000E+00
(PID.TID 0000.0001) %MON dynstat_vvel_mean            =   0.0000000000000E+00
(PID.TID 0000.0001) %MON dynstat_vvel_sd              =   0.0000000000000E+00
(PID.TID 0000.0001) %MON dynstat_vvel_del2            =   0.0000000000000E+00
(PID.TID 0000.0001) %MON dynstat_wvel_max             =   0.0000000000000E+00
(PID.TID 0000.0001) %MON dynstat_wvel_min             =   0.0000000000000E+00
(PID.TID 0000.0001) %MON dynstat_wvel_mean            =   0.0000000000000E+00
(PID.TID 0000.0001) %MON dynstat_wvel_sd              =   0.0000000000000E+00
(PID.TID 0000.0001) %MON dynstat_wvel_del2            =   0.0000000000000E+00
(PID.TID 0000.0001) %MON dynstat_theta_max            =   2.0000000000000E+01
(PID.TID 0000.0001) %MON dynstat_theta_min            =   6.0000000000000E+00
(PID.TID 0000.0001) %MON dynstat_theta_mean           =   1.1000000000000E+01
(PID.TID 0000.0001) %MON dynstat_theta_sd             =   5.3851648071345E+00
(PID.TID 0000.0001) %MON dynstat_theta_del2           =   0.0000000000000E+00
(PID.TID 0000.0001) %MON dynstat_salt_max             =   1.0000000000000E+01
(PID.TID 0000.0001) %MON dynstat_salt_min             =   1.0000000000000E+01
(PID.TID 0000.0001) %MON dynstat_salt_mean            =   1.0000000000000E+01
(PID.TID 0000.0001) %MON dynstat_salt_sd              =   0.0000000000000E+00
(PID.TID 0000.0001) %MON dynstat_salt_del2            =   0.0000000000000E+00
(PID.TID 0000.0001) %MON advcfl_uvel_max              =   0.0000000000000E+00
(PID.TID 0000.0001) %MON advcfl_vvel_max              =   0.0000000000000E+00
(PID.TID 0000.0001) %MON advcfl_wvel_max              =   0.0000000000000E+00
(PID.TID 0000.0001) %MON advcfl_W_hf_max              =   0.0000000000000E+00
(PID.TID 0000.0001) %MON pe_b_mean                    =   0.0000000000000E+00
(PID.TID 0000.0001) %MON ke_max                       =   0.0000000000000E+00
(PID.TID 0000.0001) %MON ke_mean                      =   0.0000000000000E+00
(PID.TID 0000.0001) %MON ke_vol                       =   5.6340000000000E+16
(PID.TID 0000.0001) %MON vort_r_min                   =   0.0000000000000E+00
(PID.TID 0000.0001) %MON vort_r_max                   =   0.0000000000000E+00
(PID.TID 0000.0001) %MON vort_a_mean                  =   1.0000000000000E-04
(PID.TID 0000.0001) %MON vort_a_sd                    =   0.0000000000000E+00
(PID.TID 0000.0001) %MON vort_p_mean                  =   1.0398839738941E-04
(PID.TID 0000.0001) %MON vort_p_sd                    =   3.0798696260398E-05
(PID.TID 0000.0001) %MON surfExpan_theta_mean         =   0.0000000000000E+00
(PID.TID 0000.0001) %MON surfExpan_salt_mean          =   0.0000000000000E+00
(PID.TID 0000.0001) // =======================================================
(PID.TID 0000.0001) // End MONITOR dynamic field statistics
(PID.TID 0000.0001) // =======================================================
 cg2d: Sum(rhs),rhsMax =   5.77315972805081E-14  4.24921128799584E-01
(PID.TID 0000.0001)                    cg2d_init_res =    1.43440091582323E+01
(PID.TID 0000.0001)                       cg2d_iters =    35
(PID.TID 0000.0001)                         cg2d_res =    8.75044355663795E-14
(PID.TID 0000.0001) // =======================================================
(PID.TID 0000.0001) // Begin MONITOR dynamic field statistics
(PID.TID 0000.0001) // =======================================================
(PID.TID 0000.0001) %MON time_tsnumber                =                     1
(PID.TID 0000.0001) %MON time_secondsf                =   1.2000000000000E+03
(PID.TID 0000.0001) %MON dynstat_eta_max              =   6.3479378056005E-02
(PID.TID 0000.0001) %MON dynstat_eta_min              =  -6.3479378056005E-02
(PID.TID 0000.0001) %MON dynstat_eta_mean             =  -1.4776704495030E-18
(PID.TID 0000.0001) %MON dynstat_eta_sd               =   2.6630509477227E-02
(PID.TID 0000.0001) %MON dynstat_eta_del2             =   4.6249552012277E-04
(PID.TID 0000.0001) %MON dynstat_uvel_max             =   7.6757222457609E-03
(PID.TID 0000.0001) %MON dynstat_uvel_min             =  -7.6757222457609E-03
(PID.TID 0000.0001) %MON dynstat_uvel_mean            =   5.3112536258158E-20
(PID.TID 0000.0001) %MON dynstat_uvel_sd              =   3.4801396250131E-03
(PID.TID 0000.0001) %MON dynstat_uvel_del2            =   4.7921737446697E-05
(PID.TID 0000.0001) %MON dynstat_vvel_max             =   7.6757222457609E-03
(PID.TID 0000.0001) %MON dynstat_vvel_min             =  -7.6757222457609E-03
(PID.TID 0000.0001) %MON dynstat_vvel_mean            =  -7.6127968636693E-19
(PID.TID 0000.0001) %MON dynstat_vvel_sd              =   3.4801396250131E-03
(PID.TID 0000.0001) %MON dynstat_vvel_del2            =   4.7921737446697E-05
(PID.TID 0000.0001) %MON dynstat_wvel_max             =   5.2899481713338E-05
(PID.TID 0000.0001) %MON dynstat_wvel_min             =  -5.2899481713338E-05
(PID.TID 0000.0001) %MON dynstat_wvel_mean            =  -7.1501996661183E-22
(PID.TID 0000.0001) %MON dynstat_wvel_sd              =   1.3909629302427E-05
(PID.TID 0000.0001) %MON dynstat_wvel_del2            =   2.4088308339728E-07
(PID.TID 0000.0001) %MON dynstat_theta_max            =   1.9999520000000E+01
(PID.TID 0000.0001) %MON dynstat_theta_min            =   6.0000960000000E+00
(PID.TID 0000.0001) %MON dynstat_theta_mean           =   1.1000000000000E+01
(PID.TID 0000.0001) %MON dynstat_theta_sd             =   5.3849241495835E+00
(PID.TID 0000.0001) %MON dynstat_theta_del2           =   0.0000000000000E+00
(PID.TID 0000.0001) %MON dynstat_salt_max             =   1.0000000000000E+01
(PID.TID 0000.0001) %MON dynstat_salt_min             =   1.0000000000000E+01
(PID.TID 0000.0001) %MON dynstat_salt_mean            =   1.0000000000000E+01
(PID.TID 0000.0001) %MON dynstat_salt_sd              =   0.0000000000000E+00
(PID.TID 0000.0001) %MON dynstat_salt_del2            =   0.0000000000000E+00
(PID.TID 0000.0001) %MON advcfl_uvel_max              =   9.2108666949131E-05
(PID.TID 0000.0001) %MON advcfl_vvel_max              =   9.2108666949131E-05
(PID.TID 0000.0001) %MON advcfl_wvel_max              =   2.5391751222402E-04
(PID.TID 0000.0001) %MON advcfl_W_hf_max              =   1.9043813416802E-04
(PID.TID 0000.0001) %MON pe_b_mean                    =  -2.5454689856414E-05
(PID.TID 0000.0001) %MON ke_max                       =   3.1921183426987E-05
(PID.TID 0000.0001) %MON ke_mean                      =   1.1857708005268E-05
(PID.TID 0000.0001) %MON ke_vol                       =   5.6340000000000E+16
(PID.TID 0000.0001) %MON vort_r_min                   =  -3.0468644005544E-08
(PID.TID 0000.0001) %MON vort_r_max                   =   3.0468644005544E-08
(PID.TID 0000.0001) %MON vort_a_mean                  =   1.0000000000000E-04
(PID.TID 0000.0001) %MON vort_a_sd                    =   4.1140218495264E-09
(PID.TID 0000.0001) %MON vort_p_mean                  =   1.0398839738941E-04
(PID.TID 0000.0001) %MON vort_p_sd                    =   3.0798696841317E-05
(PID.TID 0000.0001) %MON surfExpan_theta_mean         =  -3.0085322786656E-20
(PID.TID 0000.0001) %MON surfExpan_salt_mean          =   9.2900831901651E-21
(PID.TID 0000.0001) // =======================================================
(PID.TID 0000.0001) // End MONITOR dynamic field statistics
(PID.TID 0000.0001) // =======================================================
 cg2d: Sum(rhs),rhsMax =  -6.12843109593086E-14  8.65744524638392E-01
(PID.TID 0000.0001)                    cg2d_init_res =    1.13411031216681E+01
(PID.TID 0000.0001)                       cg2d_iters =    36
(PID.TID 0000.0001)                         cg2d_res =    3.85432175759239E-14
(PID.TID 0000.0001) // =======================================================
(PID.TID 0000.0001) // Begin MONITOR dynamic field statistics
(PID.TID 0000.0001) // =======================================================
(PID.TID 0000.0001) %MON time_tsnumber                =                     2
(PID.TID 0000.0001) %MON time_secondsf                =   2.4000000000000E+03
(PID.TID 0000.0001) %MON dynstat_eta_max              =   1.5119309361459E-01
(PID.TID 0000.0001) %MON dynstat_eta_min              =  -1.5119151821565E-01
(PID.TID 0000.0001) %MON dynstat_eta_mean             =  -3.1200079872204E-19
(PID.TID 0000.0001) %MON dynstat_eta_sd               =   7.2547081403664E-02
(PID.TID 0000.0001) %MON dynstat_eta_del2             =   8.5931488381330E-04
(PID.TID 0000.0001) %MON dynstat_uvel_max             =   1.3395140564885E-02
(PID.TID 0000.0001) %MON dynstat_uvel_min             =  -1.3395140564885E-02
(PID.TID 0000.0001) %MON dynstat_uvel_mean            =   4.6030864757070E-19
(PID.TID 0000.0001) %MON dynstat_uvel_sd              =   6.1216015273029E-03
(PID.TID 0000.0001) %MON dynstat_uvel_del2            =   8.5496689878935E-05
(PID.TID 0000.0001) %MON dynstat_vvel_max             =   1.3395113542603E-02
(PID.TID 0000.0001) %MON dynstat_vvel_min             =  -1.3395113542603E-02
(PID.TID 0000.0001) %MON dynstat_vvel_mean            =   7.0816715010877E-20
(PID.TID 0000.0001) %MON dynstat_vvel_sd              =   6.1215983933900E-03
(PID.TID 0000.0001) %MON dynstat_vvel_del2            =   8.5496492609078E-05
(PID.TID 0000.0001) %MON dynstat_wvel_max             =   8.0653436283743E-05
(PID.TID 0000.0001) %MON dynstat_wvel_min             =  -8.0652123451292E-05
(PID.TID 0000.0001) %MON dynstat_wvel_mean            =  -1.8184570362024E-21
(PID.TID 0000.0001) %MON dynstat_wvel_sd              =   2.4017893785266E-05
(PID.TID 0000.0001) %MON dynstat_wvel_del2            =   2.6572944101618E-07
(PID.TID 0000.0001) %MON dynstat_theta_max            =   1.9999801753076E+01
(PID.TID 0000.0001) %MON dynstat_theta_min            =   6.0001412115624E+00
(PID.TID 0000.0001) %MON dynstat_theta_mean           =   1.1000000000000E+01
(PID.TID 0000.0001) %MON dynstat_theta_sd             =   5.3846835335153E+00
(PID.TID 0000.0001) %MON dynstat_theta_del2           =   3.3297901466140E-06
(PID.TID 0000.0001) %MON dynstat_salt_max             =   1.0000000000000E+01
(PID.TID 0000.0001) %MON dynstat_salt_min             =   1.0000000000000E+01
(PID.TID 0000.0001) %MON dynstat_salt_mean            =   1.0000000000000E+01
(PID.TID 0000.0001) %MON dynstat_salt_sd              =   0.0000000000000E+00
(PID.TID 0000.0001) %MON dynstat_salt_del2            =   0.0000000000000E+00
(PID.TID 0000.0001) %MON advcfl_uvel_max              =   1.6074168677862E-04
(PID.TID 0000.0001) %MON advcfl_vvel_max              =   1.6074136251123E-04
(PID.TID 0000.0001) %MON advcfl_wvel_max              =   3.8713649416196E-04
(PID.TID 0000.0001) %MON advcfl_W_hf_max              =   2.9035028131702E-04
(PID.TID 0000.0001) %MON pe_b_mean                    =  -6.1716083455938E-05
(PID.TID 0000.0001) %MON ke_max                       =   1.0232837167515E-04
(PID.TID 0000.0001) %MON ke_mean                      =   3.6689120906466E-05
(PID.TID 0000.0001) %MON ke_vol                       =   5.6340000000000E+16
(PID.TID 0000.0001) %MON vort_r_min                   =  -5.3553840733701E-08
(PID.TID 0000.0001) %MON vort_r_max                   =   5.3553955433028E-08
(PID.TID 0000.0001) %MON vort_a_mean                  =   1.0000000000000E-04
(PID.TID 0000.0001) %MON vort_a_sd                    =   6.8687084765359E-09
(PID.TID 0000.0001) %MON vort_p_mean                  =   1.0398839738941E-04
(PID.TID 0000.0001) %MON vort_p_sd                    =   3.0798697821171E-05
(PID.TID 0000.0001) %MON surfExpan_theta_mean         =  -1.2195951929964E-08
(PID.TID 0000.0001) %MON surfExpan_salt_mean          =  -3.5441171458566E-20
(PID.TID 0000.0001) // =======================================================
(PID.TID 0000.0001) // End MONITOR dynamic field statistics
(PID.TID 0000.0001) // =======================================================
 cg2d: Sum(rhs),rhsMax =   4.44089209850063E-14  1.24139291430714E+00
(PID.TID 0000.0001)                    cg2d_init_res =    9.57941962986848E+00
(PID.TID 0000.0001)                       cg2d_iters =    35
(PID.TID 0000.0001)                         cg2d_res =    5.98906635975963E-14
(PID.TID 0000.0001) // =======================================================
(PID.TID 0000.0001) // Begin MONITOR dynamic field statistics
(PID.TID 0000.0001) // =======================================================
(PID.TID 0000.0001) %MON time_tsnumber                =                     3
(PID.TID 0000.0001) %MON time_secondsf                =   3.6000000000000E+03
(PID.TID 0000.0001) %MON dynstat_eta_max              =   2.7302464671160E-01
(PID.TID 0000.0001) %MON dynstat_eta_min              =  -2.7301824102663E-01
(PID.TID 0000.0001) %MON dynstat_eta_mean             =   4.2986776712815E-18
(PID.TID 0000.0001) %MON dynstat_eta_sd               =   1.2868286912338E-01
(PID.TID 0000.0001) %MON dynstat_eta_del2             =   1.3699498745645E-03
(PID.TID 0000.0001) %MON dynstat_uvel_max             =   1.6490553040383E-02
(PID.TID 0000.0001) %MON dynstat_uvel_min             =  -1.6490553040383E-02
(PID.TID 0000.0001) %MON dynstat_uvel_mean            =   1.4163343002175E-18
(PID.TID 0000.0001) %MON dynstat_uvel_sd              =   7.6702060718369E-03
(PID.TID 0000.0001) %MON dynstat_uvel_del2            =   1.0593898464993E-04
(PID.TID 0000.0001) %MON dynstat_vvel_max             =   1.6490517858712E-02
(PID.TID 0000.0001) %MON dynstat_vvel_min             =  -1.6490517858712E-02
(PID.TID 0000.0001) %MON dynstat_vvel_mean            =  -1.6287844452502E-18
(PID.TID 0000.0001) %MON dynstat_vvel_sd              =   7.6701952652520E-03
(PID.TID 0000.0001) %MON dynstat_vvel_del2            =   1.0593816799476E-04
(PID.TID 0000.0001) %MON dynstat_wvel_max             =   1.0152629424751E-04
(PID.TID 0000.0001) %MON dynstat_wvel_min             =  -1.0152226900915E-04
(PID.TID 0000.0001) %MON dynstat_wvel_mean            =   3.2886988952596E-22
(PID.TID 0000.0001) %MON dynstat_wvel_sd              =   2.9394541632096E-05
(PID.TID 0000.0001) %MON dynstat_wvel_del2            =   3.1418461202511E-07
(PID.TID 0000.0001) %MON dynstat_theta_max            =   2.0000129382534E+01
(PID.TID 0000.0001) %MON dynstat_theta_min            =   6.0001833594745E+00
(PID.TID 0000.0001) %MON dynstat_theta_mean           =   1.1000000011708E+01
(PID.TID 0000.0001) %MON dynstat_theta_sd             =   5.3844429626401E+00
(PID.TID 0000.0001) %MON dynstat_theta_del2           =   5.1254166889801E-06
(PID.TID 0000.0001) %MON dynstat_salt_max             =   1.0000000000000E+01
(PID.TID 0000.0001) %MON dynstat_salt_min             =   1.0000000000000E+01
(PID.TID 0000.0001) %MON dynstat_salt_mean            =   1.0000000000000E+01
(PID.TID 0000.0001) %MON dynstat_salt_sd              =   0.0000000000000E+00
(PID.TID 0000.0001) %MON dynstat_salt_del2            =   0.0000000000000E+00
(PID.TID 0000.0001) %MON advcfl_uvel_max              =   1.9788663648459E-04
(PID.TID 0000.0001) %MON advcfl_vvel_max              =   1.9788621430454E-04
(PID.TID 0000.0001) %MON advcfl_wvel_max              =   4.8732621238805E-04
(PID.TID 0000.0001) %MON advcfl_W_hf_max              =   3.6547455832920E-04
(PID.TID 0000.0001) %MON pe_b_mean                    =  -9.2322390014721E-05
(PID.TID 0000.0001) %MON ke_max                       =   1.6788197624708E-04
(PID.TID 0000.0001) %MON ke_mean                      =   5.7599785637107E-05
(PID.TID 0000.0001) %MON ke_vol                       =   5.6340000000000E+16
(PID.TID 0000.0001) %MON vort_r_min                   =  -6.3218590291231E-08
(PID.TID 0000.0001) %MON vort_r_max                   =   6.3218803771457E-08
(PID.TID 0000.0001) %MON vort_a_mean                  =   1.0000000000000E-04
(PID.TID 0000.0001) %MON vort_a_sd                    =   8.6655422852841E-09
(PID.TID 0000.0001) %MON vort_p_mean                  =   1.0398839738941E-04
(PID.TID 0000.0001) %MON vort_p_sd                    =   3.0798698525767E-05
(PID.TID 0000.0001) %MON surfExpan_theta_mean         =  -3.5081292570831E-08
(PID.TID 0000.0001) %MON surfExpan_salt_mean          =   6.8766452083784E-21
(PID.TID 0000.0001) // =======================================================
(PID.TID 0000.0001) // End MONITOR dynamic field statistics
(PID.TID 0000.0001) // =======================================================
 cg2d: Sum(rhs),rhsMax =  -4.66293670342566E-14  1.56919853143730E+00
(PID.TID 0000.0001)                    cg2d_init_res =    7.72675850262154E+00
(PID.TID 0000.0001)                       cg2d_iters =    35
(PID.TID 0000.0001)                         cg2d_res =    4.62308356622280E-14
(PID.TID 0000.0001) // =======================================================
(PID.TID 0000.0001) // Begin MONITOR dynamic field statistics
(PID.TID 0000.0001) // =======================================================
(PID.TID 0000.0001) %MON time_tsnumber                =                     4
(PID.TID 0000.0001) %MON time_secondsf                =   4.8000000000000E+03
(PID.TID 0000.0001) %MON dynstat_eta_max              =   4.0135513336093E-01
(PID.TID 0000.0001) %MON dynstat_eta_min              =  -4.0134240861131E-01
(PID.TID 0000.0001) %MON dynstat_eta_mean             =   1.7056043663472E-17
(PID.TID 0000.0001) %MON dynstat_eta_sd               =   1.8602139126753E-01
(PID.TID 0000.0001) %MON dynstat_eta_del2             =   1.9426989128405E-03
(PID.TID 0000.0001) %MON dynstat_uvel_max             =   1.7833109684602E-02
(PID.TID 0000.0001) %MON dynstat_uvel_min             =  -1.7833109684602E-02
(PID.TID 0000.0001) %MON dynstat_uvel_mean            =   1.2747008701958E-18
(PID.TID 0000.0001) %MON dynstat_uvel_sd              =   8.1482333777971E-03
(PID.TID 0000.0001) %MON dynstat_uvel_del2            =   1.1036784976296E-04
(PID.TID 0000.0001) %MON dynstat_vvel_max             =   1.7833183305072E-02
(PID.TID 0000.0001) %MON dynstat_vvel_min             =  -1.7833183305072E-02
(PID.TID 0000.0001) %MON dynstat_vvel_mean            =  -1.2038841551849E-18
(PID.TID 0000.0001) %MON dynstat_vvel_sd              =   8.1482140148334E-03
(PID.TID 0000.0001) %MON dynstat_vvel_del2            =   1.1036583889251E-04
(PID.TID 0000.0001) %MON dynstat_wvel_max             =   1.0704254735471E-04
(PID.TID 0000.0001) %MON dynstat_wvel_min             =  -1.0703725722703E-04
(PID.TID 0000.0001) %MON dynstat_wvel_mean            =   8.3184736762450E-22
(PID.TID 0000.0001) %MON dynstat_wvel_sd              =   3.0060936612786E-05
(PID.TID 0000.0001) %MON dynstat_wvel_del2            =   3.1642600755289E-07
(PID.TID 0000.0001) %MON dynstat_theta_max            =   2.0000675533542E+01
(PID.TID 0000.0001) %MON dynstat_theta_min            =   6.0002109372769E+00
(PID.TID 0000.0001) %MON dynstat_theta_mean           =   1.1000000040996E+01
(PID.TID 0000.0001) %MON dynstat_theta_sd             =   5.3842024425558E+00
(PID.TID 0000.0001) %MON dynstat_theta_del2           =   7.7646962788148E-06
(PID.TID 0000.0001) %MON dynstat_salt_max             =   1.0000000000000E+01
(PID.TID 0000.0001) %MON dynstat_salt_min             =   1.0000000000000E+01
(PID.TID 0000.0001) %MON dynstat_salt_mean            =   1.0000000000000E+01
[...]
(PID.TID 0000.0001) %MON vort_p_mean                  =   1.0398839738941E-04
(PID.TID 0000.0001) %MON vort_p_sd                    =   3.0798698035077E-05
(PID.TID 0000.0001) %MON surfExpan_theta_mean         =  -6.5741053254290E-09
(PID.TID 0000.0001) %MON surfExpan_salt_mean          =   0.0000000000000E+00
(PID.TID 0000.0001) // =======================================================
(PID.TID 0000.0001) // End MONITOR dynamic field statistics
(PID.TID 0000.0001) // =======================================================
 cg2d: Sum(rhs),rhsMax =  -9.69890834312537E-13  1.81224880027377E+00
(PID.TID 0000.0001)                    cg2d_init_res =    5.67116710117611E-01
(PID.TID 0000.0001)                       cg2d_iters =    33
(PID.TID 0000.0001)                         cg2d_res =    4.94245357556212E-14
(PID.TID 0000.0001) // =======================================================
(PID.TID 0000.0001) // Begin MONITOR dynamic field statistics
(PID.TID 0000.0001) // =======================================================
(PID.TID 0000.0001) %MON time_tsnumber                =                    39
(PID.TID 0000.0001) %MON time_secondsf                =   4.6800000000000E+04
(PID.TID 0000.0001) %MON dynstat_eta_max              =   4.6394582332626E-01
(PID.TID 0000.0001) %MON dynstat_eta_min              =  -4.6395799740947E-01
(PID.TID 0000.0001) %MON dynstat_eta_mean             =   1.5669373446929E-16
(PID.TID 0000.0001) %MON dynstat_eta_sd               =   2.0330876332929E-01
(PID.TID 0000.0001) %MON dynstat_eta_del2             =   2.0221673600303E-03
(PID.TID 0000.0001) %MON dynstat_uvel_max             =   8.1853752632883E-03
(PID.TID 0000.0001) %MON dynstat_uvel_min             =  -8.1853752632883E-03
(PID.TID 0000.0001) %MON dynstat_uvel_mean            =   0.0000000000000E+00
(PID.TID 0000.0001) %MON dynstat_uvel_sd              =   3.5691743280413E-03
(PID.TID 0000.0001) %MON dynstat_uvel_del2            =   4.1933046953493E-05
(PID.TID 0000.0001) %MON dynstat_vvel_max             =   8.1860870391662E-03
(PID.TID 0000.0001) %MON dynstat_vvel_min             =  -8.1860870391661E-03
(PID.TID 0000.0001) %MON dynstat_vvel_mean            =   7.0816715010877E-19
(PID.TID 0000.0001) %MON dynstat_vvel_sd              =   3.5692720746425E-03
(PID.TID 0000.0001) %MON dynstat_vvel_del2            =   4.1927680039799E-05
(PID.TID 0000.0001) %MON dynstat_wvel_max             =   8.6787796706264E-06
(PID.TID 0000.0001) %MON dynstat_wvel_min             =  -8.6790297608034E-06
(PID.TID 0000.0001) %MON dynstat_wvel_mean            =  -1.1220266819121E-21
(PID.TID 0000.0001) %MON dynstat_wvel_sd              =   2.6553228266961E-06
(PID.TID 0000.0001) %MON dynstat_wvel_del2            =   2.5173262355995E-08
(PID.TID 0000.0001) %MON dynstat_theta_max            =   1.9984769877684E+01
(PID.TID 0000.0001) %MON dynstat_theta_min            =   6.0035089052992E+00
(PID.TID 0000.0001) %MON dynstat_theta_mean           =   1.1000000081204E+01
(PID.TID 0000.0001) %MON dynstat_theta_sd             =   5.3757983158802E+00
(PID.TID 0000.0001) %MON dynstat_theta_del2           =   9.2903756602444E-06
(PID.TID 0000.0001) %MON dynstat_salt_max             =   1.0000000000000E+01
(PID.TID 0000.0001) %MON dynstat_salt_min             =   1.0000000000000E+01
(PID.TID 0000.0001) %MON dynstat_salt_mean            =   1.0000000000000E+01
(PID.TID 0000.0001) %MON dynstat_salt_sd              =   0.0000000000000E+00
(PID.TID 0000.0001) %MON dynstat_salt_del2            =   0.0000000000000E+00
(PID.TID 0000.0001) %MON advcfl_uvel_max              =   9.8224503159460E-05
(PID.TID 0000.0001) %MON advcfl_vvel_max              =   9.8233044469994E-05
(PID.TID 0000.0001) %MON advcfl_wvel_max              =   4.1659342851857E-05
(PID.TID 0000.0001) %MON advcfl_W_hf_max              =   3.1661748834860E-05
(PID.TID 0000.0001) %MON pe_b_mean                    =  -1.1212337729618E-04
(PID.TID 0000.0001) %MON ke_max                       =   5.1040130725843E-05
(PID.TID 0000.0001) %MON ke_mean                      =   1.2472537826915E-05
(PID.TID 0000.0001) %MON ke_vol                       =   5.6340000000000E+16
(PID.TID 0000.0001) %MON vort_r_min                   =  -2.3161914796597E-08
(PID.TID 0000.0001) %MON vort_r_max                   =   2.3166331229525E-08
(PID.TID 0000.0001) %MON vort_a_mean                  =   1.0000000000000E-04
(PID.TID 0000.0001) %MON vort_a_sd                    =   9.9229205609821E-09
(PID.TID 0000.0001) %MON vort_p_mean                  =   1.0398839738941E-04
(PID.TID 0000.0001) %MON vort_p_sd                    =   3.0798698098514E-05
(PID.TID 0000.0001) %MON surfExpan_theta_mean         =  -4.9878372417894E-09
(PID.TID 0000.0001) %MON surfExpan_salt_mean          =  -8.4635633333888E-21
(PID.TID 0000.0001) // =======================================================
(PID.TID 0000.0001) // End MONITOR dynamic field statistics
(PID.TID 0000.0001) // =======================================================
 cg2d: Sum(rhs),rhsMax =  -8.59756710269721E-13  1.83274269912867E+00
(PID.TID 0000.0001)                    cg2d_init_res =    4.11763515168677E-01
(PID.TID 0000.0001)                       cg2d_iters =    33
(PID.TID 0000.0001)                         cg2d_res =    4.61618479279144E-14
(PID.TID 0000.0001) // =======================================================
(PID.TID 0000.0001) // Begin MONITOR dynamic field statistics
(PID.TID 0000.0001) // =======================================================
(PID.TID 0000.0001) %MON time_tsnumber                =                    40
(PID.TID 0000.0001) %MON time_secondsf                =   4.8000000000000E+04
(PID.TID 0000.0001) %MON dynstat_eta_max              =   4.6912941040309E-01
(PID.TID 0000.0001) %MON dynstat_eta_min              =  -4.6914216350942E-01
(PID.TID 0000.0001) %MON dynstat_eta_mean             =   9.3461572594959E-17
(PID.TID 0000.0001) %MON dynstat_eta_sd               =   2.0549875078407E-01
(PID.TID 0000.0001) %MON dynstat_eta_del2             =   2.0459240676504E-03
(PID.TID 0000.0001) %MON dynstat_uvel_max             =   7.7414910827113E-03
(PID.TID 0000.0001) %MON dynstat_uvel_min             =  -7.7414910827112E-03
(PID.TID 0000.0001) %MON dynstat_uvel_mean            =   2.0536847353154E-18
(PID.TID 0000.0001) %MON dynstat_uvel_sd              =   3.5970578305531E-03
(PID.TID 0000.0001) %MON dynstat_uvel_del2            =   4.2141844840913E-05
(PID.TID 0000.0001) %MON dynstat_vvel_max             =   7.7421558729373E-03
(PID.TID 0000.0001) %MON dynstat_vvel_min             =  -7.7421558729372E-03
(PID.TID 0000.0001) %MON dynstat_vvel_mean            =  -6.3735043509790E-19
(PID.TID 0000.0001) %MON dynstat_vvel_sd              =   3.5971282187659E-03
(PID.TID 0000.0001) %MON dynstat_vvel_del2            =   4.2136846062193E-05
(PID.TID 0000.0001) %MON dynstat_wvel_max             =   6.4209024089746E-06
(PID.TID 0000.0001) %MON dynstat_wvel_min             =  -6.4220012872673E-06
(PID.TID 0000.0001) %MON dynstat_wvel_mean            =   9.6726438095872E-22
(PID.TID 0000.0001) %MON dynstat_wvel_sd              =   2.0094715946495E-06
(PID.TID 0000.0001) %MON dynstat_wvel_del2            =   1.6854455002819E-08
(PID.TID 0000.0001) %MON dynstat_theta_max            =   1.9984348109150E+01
(PID.TID 0000.0001) %MON dynstat_theta_min            =   6.0036008512880E+00
(PID.TID 0000.0001) %MON dynstat_theta_mean           =   1.1000000083626E+01
(PID.TID 0000.0001) %MON dynstat_theta_sd             =   5.3755586515921E+00
(PID.TID 0000.0001) %MON dynstat_theta_del2           =   9.4607450747272E-06
(PID.TID 0000.0001) %MON dynstat_salt_max             =   1.0000000000000E+01
(PID.TID 0000.0001) %MON dynstat_salt_min             =   1.0000000000000E+01
(PID.TID 0000.0001) %MON dynstat_salt_mean            =   1.0000000000000E+01
(PID.TID 0000.0001) %MON dynstat_salt_sd              =   0.0000000000000E+00
(PID.TID 0000.0001) %MON dynstat_salt_del2            =   0.0000000000000E+00
(PID.TID 0000.0001) %MON advcfl_uvel_max              =   9.2897892992535E-05
(PID.TID 0000.0001) %MON advcfl_vvel_max              =   9.2905870475247E-05
(PID.TID 0000.0001) %MON advcfl_wvel_max              =   3.0825606178883E-05
(PID.TID 0000.0001) %MON advcfl_W_hf_max              =   2.4000310854438E-05
(PID.TID 0000.0001) %MON pe_b_mean                    =  -1.1232460705620E-04
(PID.TID 0000.0001) %MON ke_max                       =   5.1599360615404E-05
(PID.TID 0000.0001) %MON ke_mean                      =   1.2668078720763E-05
(PID.TID 0000.0001) %MON ke_vol                       =   5.6340000000000E+16
(PID.TID 0000.0001) %MON vort_r_min                   =  -2.3500901436635E-08
(PID.TID 0000.0001) %MON vort_r_max                   =   2.3505755815307E-08
(PID.TID 0000.0001) %MON vort_a_mean                  =   1.0000000000000E-04
(PID.TID 0000.0001) %MON vort_a_sd                    =   1.0055091340577E-08
(PID.TID 0000.0001) %MON vort_p_mean                  =   1.0398839738941E-04
(PID.TID 0000.0001) %MON vort_p_sd                    =   3.0798698125960E-05
(PID.TID 0000.0001) %MON surfExpan_theta_mean         =  -2.8201804986756E-09
(PID.TID 0000.0001) %MON surfExpan_salt_mean          =   8.4635633333888E-21
(PID.TID 0000.0001) // =======================================================
(PID.TID 0000.0001) // End MONITOR dynamic field statistics
(PID.TID 0000.0001) // =======================================================
(PID.TID 0000.0001) %CHECKPOINT        40 ckptA
(PID.TID 0000.0001)   Seconds in section "ALL                    [THE_MODEL_MAIN]":
(PID.TID 0000.0001)           User time:  5.66000008
(PID.TID 0000.0001)         System time:  0.0900000036
(PID.TID 0000.0001)     Wall clock time:  6.01161599
(PID.TID 0000.0001)          No. starts: 1
(PID.TID 0000.0001)           No. stops: 1
(PID.TID 0000.0001)   Seconds in section "INITIALISE_FIXED       [THE_MODEL_MAIN]":
(PID.TID 0000.0001)           User time:  0.0499999989
(PID.TID 0000.0001)         System time:  0.0299999993
(PID.TID 0000.0001)     Wall clock time:  0.136812925
(PID.TID 0000.0001)          No. starts: 1
(PID.TID 0000.0001)           No. stops: 1
(PID.TID 0000.0001)   Seconds in section "THE_MAIN_LOOP          [THE_MODEL_MAIN]":
(PID.TID 0000.0001)           User time:  5.57000012
(PID.TID 0000.0001)         System time:  0.040000001
(PID.TID 0000.0001)     Wall clock time:  5.77955008
(PID.TID 0000.0001)          No. starts: 1
(PID.TID 0000.0001)           No. stops: 1
(PID.TID 0000.0001)   Seconds in section "INITIALISE_VARIA    [THE_MAIN_LOOP]":
(PID.TID 0000.0001)           User time:  0.0100000016
(PID.TID 0000.0001)         System time:  0.00999999978
(PID.TID 0000.0001)     Wall clock time:  0.0183610916
(PID.TID 0000.0001)          No. starts: 1
(PID.TID 0000.0001)           No. stops: 1
(PID.TID 0000.0001)   Seconds in section "MONITOR             [THE_MAIN_LOOP]":
(PID.TID 0000.0001)           User time:  0.0300000012
(PID.TID 0000.0001)         System time:  0.
(PID.TID 0000.0001)     Wall clock time:  0.0245149136
(PID.TID 0000.0001)          No. starts: 1
(PID.TID 0000.0001)           No. stops: 1
(PID.TID 0000.0001)   Seconds in section "DO_THE_MODEL_IO     [THE_MAIN_LOOP]":
(PID.TID 0000.0001)           User time:  0.00999999791
(PID.TID 0000.0001)         System time:  0.
(PID.TID 0000.0001)     Wall clock time:  0.0515100956
(PID.TID 0000.0001)          No. starts: 1
(PID.TID 0000.0001)           No. stops: 1
(PID.TID 0000.0001)   Seconds in section "MAIN LOOP           [THE_MAIN_LOOP]":
(PID.TID 0000.0001)           User time:  5.52000012
(PID.TID 0000.0001)         System time:  0.0300000012
(PID.TID 0000.0001)     Wall clock time:  5.68501282
(PID.TID 0000.0001)          No. starts: 1
(PID.TID 0000.0001)           No. stops: 1
(PID.TID 0000.0001)   Seconds in section "FORWARD_STEP        [THE_MAIN_LOOP]":
(PID.TID 0000.0001)           User time:  5.52000012
(PID.TID 0000.0001)         System time:  0.0300000012
(PID.TID 0000.0001)     Wall clock time:  5.68379521
(PID.TID 0000.0001)          No. starts: 40
(PID.TID 0000.0001)           No. stops: 40
(PID.TID 0000.0001)   Seconds in section "EXTERNAL_FIELDS_LOAD[FORWARD_STEP]":
(PID.TID 0000.0001)           User time:  0.00999999046
(PID.TID 0000.0001)         System time:  0.
(PID.TID 0000.0001)     Wall clock time:  0.00119972229
(PID.TID 0000.0001)          No. starts: 40
(PID.TID 0000.0001)           No. stops: 40
(PID.TID 0000.0001)   Seconds in section "DO_ATMOSPHERIC_PHYS [FORWARD_STEP]":
(PID.TID 0000.0001)           User time:  0.
(PID.TID 0000.0001)         System time:  0.
(PID.TID 0000.0001)     Wall clock time:  0.00118279457
(PID.TID 0000.0001)          No. starts: 40
(PID.TID 0000.0001)           No. stops: 40
(PID.TID 0000.0001)   Seconds in section "DO_OCEANIC_PHYS     [FORWARD_STEP]":
(PID.TID 0000.0001)           User time:  0.0100002289
(PID.TID 0000.0001)         System time:  0.
(PID.TID 0000.0001)     Wall clock time:  0.0570209026
(PID.TID 0000.0001)          No. starts: 40
(PID.TID 0000.0001)           No. stops: 40
(PID.TID 0000.0001)   Seconds in section "THERMODYNAMICS      [FORWARD_STEP]":
(PID.TID 0000.0001)           User time:  0.910000935
(PID.TID 0000.0001)         System time:  0.
(PID.TID 0000.0001)     Wall clock time:  0.882974386
(PID.TID 0000.0001)          No. starts: 40
(PID.TID 0000.0001)           No. stops: 40
(PID.TID 0000.0001)   Seconds in section "DYNAMICS            [FORWARD_STEP]":
(PID.TID 0000.0001)           User time:  1.40000002
(PID.TID 0000.0001)         System time:  0.
(PID.TID 0000.0001)     Wall clock time:  1.40827632
(PID.TID 0000.0001)          No. starts: 40
(PID.TID 0000.0001)           No. stops: 40
(PID.TID 0000.0001)   Seconds in section "SOLVE_FOR_PRESSURE  [FORWARD_STEP]":
(PID.TID 0000.0001)           User time:  1.91000153
(PID.TID 0000.0001)         System time:  0.
(PID.TID 0000.0001)     Wall clock time:  1.89755416
(PID.TID 0000.0001)          No. starts: 40
(PID.TID 0000.0001)           No. stops: 40
(PID.TID 0000.0001)   Seconds in section "UV_CORRECTION_STEP  [FORWARD_STEP]":
(PID.TID 0000.0001)           User time:  0.119999319
(PID.TID 0000.0001)         System time:  0.
(PID.TID 0000.0001)     Wall clock time:  0.120731592
(PID.TID 0000.0001)          No. starts: 40
(PID.TID 0000.0001)           No. stops: 40
(PID.TID 0000.0001)   Seconds in section "TS_CORRECTION_STEP  [FORWARD_STEP]":
(PID.TID 0000.0001)           User time:  0.0299999714
(PID.TID 0000.0001)         System time:  0.
(PID.TID 0000.0001)     Wall clock time:  0.0330061913
(PID.TID 0000.0001)          No. starts: 40
(PID.TID 0000.0001)           No. stops: 40
(PID.TID 0000.0001)   Seconds in section "BLOCKING_EXCHANGES  [FORWARD_STEP]":
(PID.TID 0000.0001)           User time:  0.0499997139
(PID.TID 0000.0001)         System time:  0.
(PID.TID 0000.0001)     Wall clock time:  0.0540585518
(PID.TID 0000.0001)          No. starts: 40
(PID.TID 0000.0001)           No. stops: 40
(PID.TID 0000.0001)   Seconds in section "DO_STATEVARS_DIAGS  [FORWARD_STEP]":
(PID.TID 0000.0001)           User time:  0.
(PID.TID 0000.0001)         System time:  0.
(PID.TID 0000.0001)     Wall clock time:  0.00120854378
(PID.TID 0000.0001)          No. starts: 40
(PID.TID 0000.0001)           No. stops: 40
(PID.TID 0000.0001)   Seconds in section "MONITOR             [FORWARD_STEP]":
(PID.TID 0000.0001)           User time:  0.999998242
(PID.TID 0000.0001)         System time:  0.
(PID.TID 0000.0001)     Wall clock time:  0.979156733
(PID.TID 0000.0001)          No. starts: 40
(PID.TID 0000.0001)           No. stops: 40
(PID.TID 0000.0001)   Seconds in section "DO_THE_MODEL_IO     [FORWARD_STEP]":
(PID.TID 0000.0001)           User time:  0.0100002289
(PID.TID 0000.0001)         System time:  0.0100000016
(PID.TID 0000.0001)     Wall clock time:  0.0597314835
(PID.TID 0000.0001)          No. starts: 40
(PID.TID 0000.0001)           No. stops: 40
(PID.TID 0000.0001)   Seconds in section "WRITE_CHECKPOINT    [FORWARD_STEP]":
(PID.TID 0000.0001)           User time:  0.0699999332
(PID.TID 0000.0001)         System time:  0.0199999996
(PID.TID 0000.0001)     Wall clock time:  0.170793295
(PID.TID 0000.0001)          No. starts: 40
(PID.TID 0000.0001)           No. stops: 40
(PID.TID 0000.0001)   Seconds in section "WRITE_CHECKPOINT       [THE_MODEL_MAIN]":
(PID.TID 0000.0001)           User time:  0.0399999619
(PID.TID 0000.0001)         System time:  0.0200000033
(PID.TID 0000.0001)     Wall clock time:  0.0951149464
(PID.TID 0000.0001)          No. starts: 1
(PID.TID 0000.0001)           No. stops: 1
(PID.TID 0000.0001) // ======================================================
(PID.TID 0000.0001) // Tile <-> Tile communication statistics
(PID.TID 0000.0001) // ======================================================
(PID.TID 0000.0001) // o Tile number: 000001
(PID.TID 0000.0001) //         No. X exchanges =              0
(PID.TID 0000.0001) //            Max. X spins =              0
(PID.TID 0000.0001) //            Min. X spins =     1000000000
(PID.TID 0000.0001) //          Total. X spins =              0
(PID.TID 0000.0001) //            Avg. X spins =       0.00E+00
(PID.TID 0000.0001) //         No. Y exchanges =              0
(PID.TID 0000.0001) //            Max. Y spins =              0
(PID.TID 0000.0001) //            Min. Y spins =     1000000000
(PID.TID 0000.0001) //          Total. Y spins =              0
(PID.TID 0000.0001) //            Avg. Y spins =       0.00E+00
(PID.TID 0000.0001) // o Tile number: 000002
(PID.TID 0000.0001) //         No. X exchanges =              0
(PID.TID 0000.0001) //            Max. X spins =              0
(PID.TID 0000.0001) //            Min. X spins =     1000000000
(PID.TID 0000.0001) //          Total. X spins =              0
(PID.TID 0000.0001) //            Avg. X spins =       0.00E+00
(PID.TID 0000.0001) //         No. Y exchanges =              0
(PID.TID 0000.0001) //            Max. Y spins =              0
(PID.TID 0000.0001) //            Min. Y spins =     1000000000
(PID.TID 0000.0001) //          Total. Y spins =              0
(PID.TID 0000.0001) //            Avg. Y spins =       0.00E+00
(PID.TID 0000.0001) // o Tile number: 000003
(PID.TID 0000.0001) //         No. X exchanges =              0
(PID.TID 0000.0001) //            Max. X spins =              0
(PID.TID 0000.0001) //            Min. X spins =     1000000000
(PID.TID 0000.0001) //          Total. X spins =              0
(PID.TID 0000.0001) //            Avg. X spins =       0.00E+00
(PID.TID 0000.0001) //         No. Y exchanges =              0
(PID.TID 0000.0001) //            Max. Y spins =              0
(PID.TID 0000.0001) //            Min. Y spins =     1000000000
(PID.TID 0000.0001) //          Total. Y spins =              0
(PID.TID 0000.0001) //            Avg. Y spins =       0.00E+00
(PID.TID 0000.0001) // o Tile number: 000004
(PID.TID 0000.0001) //         No. X exchanges =              0
(PID.TID 0000.0001) //            Max. X spins =              0
(PID.TID 0000.0001) //            Min. X spins =     1000000000
(PID.TID 0000.0001) //          Total. X spins =              0
(PID.TID 0000.0001) //            Avg. X spins =       0.00E+00
(PID.TID 0000.0001) //         No. Y exchanges =              0
(PID.TID 0000.0001) //            Max. Y spins =              0
(PID.TID 0000.0001) //            Min. Y spins =     1000000000
(PID.TID 0000.0001) //          Total. Y spins =              0
(PID.TID 0000.0001) //            Avg. Y spins =       0.00E+00
(PID.TID 0000.0001) // o Thread number: 000001
(PID.TID 0000.0001) //            No. barriers =          28926
(PID.TID 0000.0001) //      Max. barrier spins =              1
(PID.TID 0000.0001) //      Min. barrier spins =              1
(PID.TID 0000.0001) //     Total barrier spins =          28926
(PID.TID 0000.0001) //      Avg. barrier spins =       1.00E+00
