(PID.TID 0000.0001) 
(PID.TID 0000.0001) // ======================================================
(PID.TID 0000.0001) //                      MITgcm UV
(PID.TID 0000.0001) //                      =========
(PID.TID 0000.0001) // ======================================================
(PID.TID 0000.0001) // execution environment starting up...
(PID.TID 0000.0001) 
(PID.TID 0000.0001) // MITgcmUV version:  checkpoint66l
(PID.TID 0000.0001) // Build user:        jmc
(PID.TID 0000.0001) // Build host:        baudelaire
(PID.TID 0000.0001) // Build date:        Tue Dec 12 12:38:47 EST 2017
(PID.TID 0000.0001) 
(PID.TID 0000.0001) // =======================================================
(PID.TID 0000.0001) // Execution Environment parameter file "eedata"
(PID.TID 0000.0001) // =======================================================
(PID.TID 0000.0001) ># Example "eedata" file
(PID.TID 0000.0001) ># Lines beginning "#" are comments
(PID.TID 0000.0001) ># nTx - No. threads per process in X
(PID.TID 0000.0001) ># nTy - No. threads per process in Y
(PID.TID 0000.0001) > &EEPARMS
(PID.TID 0000.0001) > nTx=1,
(PID.TID 0000.0001) > nTy=1,
(PID.TID 0000.0001) > /
(PID.TID 0000.0001) ># Note: Some systems use & as the
(PID.TID 0000.0001) ># namelist terminator. Other systems
(PID.TID 0000.0001) ># use a / character (as shown here).
(PID.TID 0000.0001) 
(PID.TID 0000.0001) // =======================================================
(PID.TID 0000.0001) // Computational Grid Specification ( see files "SIZE.h" )
(PID.TID 0000.0001) //                                  ( and "eedata"       )
(PID.TID 0000.0001) // =======================================================
(PID.TID 0000.0001)      nPx =    1 ; /* No. processes in X */
(PID.TID 0000.0001)      nPy =    1 ; /* No. processes in Y */
(PID.TID 0000.0001)      nSx =    2 ; /* No. tiles in X per process */
(PID.TID 0000.0001)      nSy =    2 ; /* No. tiles in Y per process */
(PID.TID 0000.0001)      sNx =   10 ; /* Tile size in X */
(PID.TID 0000.0001)      sNy =    8 ; /* Tile size in Y */
(PID.TID 0000.0001)      OLx =    4 ; /* Tile overlap distance in X */
(PID.TID 0000.0001)      OLy =    4 ; /* Tile overlap distance in Y */
(PID.TID 0000.0001)      nTx =    1 ; /* No. threads in X per process */
(PID.TID 0000.0001)      nTy =    1 ; /* No. threads in Y per process */
(PID.TID 0000.0001)       Nr =   23 ; /* No. levels in the vertical   */
(PID.TID 0000.0001)       Nx =   20 ; /* Total domain size in X ( = nPx*nSx*sNx ) */
(PID.TID 0000.0001)       Ny =   16 ; /* Total domain size in Y ( = nPy*nSy*sNy ) */
(PID.TID 0000.0001)   nTiles =    4 ; /* Total no. tiles per process ( = nSx*nSy ) */
(PID.TID 0000.0001)   nProcs =    1 ; /* Total no. processes ( = nPx*nPy ) */
(PID.TID 0000.0001) nThreads =    1 ; /* Total no. threads per process ( = nTx*nTy ) */
(PID.TID 0000.0001) usingMPI =    F ; /* Flag used to control whether MPI is in use */
(PID.TID 0000.0001)                   /*  note: To execute a program with MPI calls */
(PID.TID 0000.0001)                   /*  it must be launched appropriately e.g     */
(PID.TID 0000.0001)                   /*  "mpirun -np 64 ......"                    */
(PID.TID 0000.0001) useCoupler=    F ;/* Flag used to control communications with   */
(PID.TID 0000.0001)                   /*  other model components, through a coupler */
(PID.TID 0000.0001) debugMode =    F ; /* print debug msg. (sequence of S/R calls)  */
(PID.TID 0000.0001) printMapIncludesZeros=    F ; /* print zeros in Std.Output maps */
(PID.TID 0000.0001) maxLengthPrt1D=   65 /* maxLength of 1D array printed to StdOut */
(PID.TID 0000.0001) 
(PID.TID 0000.0001) // ======================================================
(PID.TID 0000.0001) // Mapping of tiles to threads
(PID.TID 0000.0001) // ======================================================
(PID.TID 0000.0001) // -o- Thread   1, tiles (   1:   2,   1:   2)
(PID.TID 0000.0001) 
(PID.TID 0000.0001) // ======================================================
(PID.TID 0000.0001) // Tile <-> Tile connectvity table
(PID.TID 0000.0001) // ======================================================
(PID.TID 0000.0001) // Tile number: 000001 (process no. = 000000)
(PID.TID 0000.0001) //        WEST: Tile = 000002, Process = 000000, Comm = put
(PID.TID 0000.0001) //                bi = 000002, bj = 000001
(PID.TID 0000.0001) //        EAST: Tile = 000002, Process = 000000, Comm = put
(PID.TID 0000.0001) //                bi = 000002, bj = 000001
(PID.TID 0000.0001) //       SOUTH: Tile = 000003, Process = 000000, Comm = put
(PID.TID 0000.0001) //                bi = 000001, bj = 000002
(PID.TID 0000.0001) //       NORTH: Tile = 000003, Process = 000000, Comm = put
(PID.TID 0000.0001) //                bi = 000001, bj = 000002
(PID.TID 0000.0001) // Tile number: 000002 (process no. = 000000)
(PID.TID 0000.0001) //        WEST: Tile = 000001, Process = 000000, Comm = put
(PID.TID 0000.0001) //                bi = 000001, bj = 000001
(PID.TID 0000.0001) //        EAST: Tile = 000001, Process = 000000, Comm = put
(PID.TID 0000.0001) //                bi = 000001, bj = 000001
(PID.TID 0000.0001) //       SOUTH: Tile = 000004, Process = 000000, Comm = put
(PID.TID 0000.0001) //                bi = 000002, bj = 000002
(PID.TID 0000.0001) //       NORTH: Tile = 000004, Process = 000000, Comm = put
(PID.TID 0000.0001) //                bi = 000002, bj = 000002
(PID.TID 0000.0001) // Tile number: 000003 (process no. = 000000)
(PID.TID 0000.0001) //        WEST: Tile = 000004, Process = 000000, Comm = put
(PID.TID 0000.0001) //                bi = 000002, bj = 000002
(PID.TID 0000.0001) //        EAST: Tile = 000004, Process = 000000, Comm = put
(PID.TID 0000.0001) //                bi = 000002, bj = 000002
(PID.TID 0000.0001) //       SOUTH: Tile = 000001, Process = 000000, Comm = put
(PID.TID 0000.0001) //                bi = 000001, bj = 000001
(PID.TID 0000.0001) //       NORTH: Tile = 000001, Process = 000000, Comm = put
(PID.TID 0000.0001) //                bi = 000001, bj = 000001
(PID.TID 0000.0001) // Tile number: 000004 (process no. = 000000)
(PID.TID 0000.0001) //        WEST: Tile = 000003, Process = 000000, Comm = put
(PID.TID 0000.0001) //                bi = 000001, bj = 000002
(PID.TID 0000.0001) //        EAST: Tile = 000003, Process = 000000, Comm = put
(PID.TID 0000.0001) //                bi = 000001, bj = 000002
(PID.TID 0000.0001) //       SOUTH: Tile = 000002, Process = 000000, Comm = put
(PID.TID 0000.0001) //                bi = 000002, bj = 000001
(PID.TID 0000.0001) //       NORTH: Tile = 000002, Process = 000000, Comm = put
(PID.TID 0000.0001) //                bi = 000002, bj = 000001
(PID.TID 0000.0001) 
(PID.TID 0000.0001)  INI_PARMS: opening model parameter file "data"
(PID.TID 0000.0001)  OPEN_COPY_DATA_FILE: opening file data
(PID.TID 0000.0001) // =======================================================
(PID.TID 0000.0001) // Parameter file "data"
(PID.TID 0000.0001) // =======================================================
(PID.TID 0000.0001) ># ====================
(PID.TID 0000.0001) ># | Model parameters |
(PID.TID 0000.0001) ># ====================
(PID.TID 0000.0001) >#
(PID.TID 0000.0001) ># Continuous equation parameters
(PID.TID 0000.0001) >#
(PID.TID 0000.0001) >#   tRef            - Reference vertical potential temperature          (deg C)
(PID.TID 0000.0001) >#   sRef            - Reference vertical salinity                         (PSU)
(PID.TID 0000.0001) >#   viscAh          - Horizontal eddy viscosity coefficient             (m^2/s)
(PID.TID 0000.0001) >#   viscAz          - Vertical eddy viscosity coefficient               (m^2/s)
(PID.TID 0000.0001) >#   diffKhT         - Horizontal temperature diffusivity                (m^2/s)
(PID.TID 0000.0001) >#   diffKzT         - Vertical temperature diffusivity                  (m^2/s)
(PID.TID 0000.0001) >#   diffKhS         - Horizontal salt diffusivity                       (m^2/s)
(PID.TID 0000.0001) >#   diffKzS         - Vertical salt diffusivity                         (m^2/s)
(PID.TID 0000.0001) >#   gravity         - Acceleration due to gravity                       (m/s^2)
(PID.TID 0000.0001) >#   rigidLid        - Set to true to use rigid lid
(PID.TID 0000.0001) >#   implicitFreeSurface - Set to true to use implicit free surface
(PID.TID 0000.0001) >#   eosType         - Flag for linear or polynomial equation of state
(PID.TID 0000.0001) >#   momAdvection    - On/Off flag for momentum self transport
(PID.TID 0000.0001) >#   momViscosity    - On/Off flag for momentum mixing
(PID.TID 0000.0001) >#
(PID.TID 0000.0001) > &PARM01
(PID.TID 0000.0001) > tRef= 24.0 , 23.0 , 22.0 , 21.0 , 20.0 ,
(PID.TID 0000.0001) >       19.0 , 18.0 , 17.0 , 16.0 , 15.0 ,
(PID.TID 0000.0001) >       14.0 , 13.0 , 12.0 , 11.0 , 10.0 ,
(PID.TID 0000.0001) >        9.0 ,  8.0 ,  7.0 ,  6.0,   5.0 ,
(PID.TID 0000.0001) >        4.0 ,  3.0 ,  2.0 ,
(PID.TID 0000.0001) > sRef= 34.65, 34.75, 34.82, 34.87, 34.90,
(PID.TID 0000.0001) >       34.90, 34.86, 34.78, 34.69, 34.60,
(PID.TID 0000.0001) >       34.58, 34.62, 34.68, 34.72, 34.73,
(PID.TID 0000.0001) >       34.74, 34.73, 34.73, 34.72, 34.72,
(PID.TID 0000.0001) >       34.71, 34.70, 34.69,
(PID.TID 0000.0001) > no_slip_sides=.FALSE.,
(PID.TID 0000.0001) > no_slip_bottom=.TRUE.,
(PID.TID 0000.0001) > viscAz=1.93e-5,
(PID.TID 0000.0001) > viscAh=5.E4,
(PID.TID 0000.0001) > diffKhT=0.0,
(PID.TID 0000.0001) > diffKzT=1.46e-5,
(PID.TID 0000.0001) > diffKhS=0.0,
(PID.TID 0000.0001) > diffKzS=1.46e-5,
(PID.TID 0000.0001) > implicitFreeSurface=.TRUE.,
(PID.TID 0000.0001) > eosType='JMD95Z',
(PID.TID 0000.0001) > saltStepping=.TRUE.,
(PID.TID 0000.0001) > tempStepping=.TRUE.,
(PID.TID 0000.0001) > momStepping=.TRUE.,
(PID.TID 0000.0001) > implicitDiffusion=.TRUE.,
(PID.TID 0000.0001) > implicitViscosity=.TRUE.,
(PID.TID 0000.0001) > allowFreezing=.FALSE.,
(PID.TID 0000.0001) >#- set wrong celsius2K to reproduce old results:
(PID.TID 0000.0001) > celsius2K=273.16,
(PID.TID 0000.0001) > HeatCapacity_Cp = 3986.D0,
(PID.TID 0000.0001) > gravity         = 9.8156,
(PID.TID 0000.0001) > rhoConst        = 1027.D0,
(PID.TID 0000.0001) > rhoConstFresh   = 999.8,
(PID.TID 0000.0001) > useCDscheme=.TRUE.,
(PID.TID 0000.0001) >#ph(
(PID.TID 0000.0001) > staggerTimeStep=.TRUE.,
(PID.TID 0000.0001) > multiDimAdvection=.TRUE.,
(PID.TID 0000.0001) > tempAdvScheme=30,
(PID.TID 0000.0001) > saltAdvScheme=30,
(PID.TID 0000.0001) >#ph)
(PID.TID 0000.0001) >#globalFiles=.TRUE.,
(PID.TID 0000.0001) >#- not safe to use globalFiles in multi-processors runs; set instead useSingleCpuIO
(PID.TID 0000.0001) > useSingleCpuIO=.FALSE.,
(PID.TID 0000.0001) > readBinaryPrec=32,
(PID.TID 0000.0001) > writeBinaryPrec=32,
(PID.TID 0000.0001) > /
(PID.TID 0000.0001) >
(PID.TID 0000.0001) ># Elliptic solver parameters
(PID.TID 0000.0001) >#
(PID.TID 0000.0001) >#   cg2dMaxIters       - Maximum number of 2d solver iterations
(PID.TID 0000.0001) >#   cg2dTargetResidual - Solver target residual
(PID.TID 0000.0001) >#
(PID.TID 0000.0001) > &PARM02
(PID.TID 0000.0001) > cg2dMaxIters=1000,
(PID.TID 0000.0001) > cg2dTargetResidual=1.E-13,
(PID.TID 0000.0001) > /
(PID.TID 0000.0001) >
(PID.TID 0000.0001) ># Time stepping parameters
(PID.TID 0000.0001) >#
(PID.TID 0000.0001) >#   startTime         - Integration starting time                (s)
(PID.TID 0000.0001) >#   endTime           - Integration ending time                  (s)
(PID.TID 0000.0001) >#   tauCD             - CD scheme coupling timescale             (s)
(PID.TID 0000.0001) >#   deltaTMom         - Timestep for momemtum equations          (s)
(PID.TID 0000.0001) >#   deltaTtracer      - Tracer timestep                          (s)
(PID.TID 0000.0001) >#   deltaTClock       - Timestep used as model "clock"           (s)
(PID.TID 0000.0001) >#   abEps             - Adams-Bashforth stabilising factor
(PID.TID 0000.0001) >#   pChkPtFreq        - Frequency of permanent check pointing    (s)
(PID.TID 0000.0001) >#   chkPtFreq         - Frequency of rolling check pointing      (s)
(PID.TID 0000.0001) >#   dumpFreq          - Frequency at which model state is stored (s)
(PID.TID 0000.0001) >#   tauThetaClimRelax - Relaxation to climatology time scale     (s)
(PID.TID 0000.0001) >#   tauSaltClimRelax  - Relaxation to climatology time scale     (s)
(PID.TID 0000.0001) >#
(PID.TID 0000.0001) > &PARM03
(PID.TID 0000.0001) > tauCD=172800.,
(PID.TID 0000.0001) > startTime=0.0,
(PID.TID 0000.0001) > nTimeSteps=12,
(PID.TID 0000.0001) > deltaTmom=3600.0,
(PID.TID 0000.0001) > deltaTtracer=3600.0,
(PID.TID 0000.0001) > deltaTClock =3600.0,
(PID.TID 0000.0001) > cAdjFreq=0.,
(PID.TID 0000.0001) > abEps=0.1,
(PID.TID 0000.0001) > forcing_In_AB = .FALSE.,
(PID.TID 0000.0001) > pChkptFreq=36000.,
(PID.TID 0000.0001) > chkptFreq= 0.,
(PID.TID 0000.0001) > dumpFreq = 0.,
(PID.TID 0000.0001) > monitorFreq=1.,
(PID.TID 0000.0001) > adjMonitorFreq=1.,
(PID.TID 0000.0001) > adjDumpFreq=1.,
(PID.TID 0000.0001) > /
(PID.TID 0000.0001) >
(PID.TID 0000.0001) ># Gridding parameters
(PID.TID 0000.0001) >#
(PID.TID 0000.0001) >#   usingSphericalPolarGrid - On/Off flag for spherical polar coordinates
(PID.TID 0000.0001) >#   delX                    - Zonal grid spacing         (degrees)
(PID.TID 0000.0001) >#   delY                    - Meridional grid spacing    (degrees)
(PID.TID 0000.0001) >#   delZ                    - Vertical grid spacing      (m)
(PID.TID 0000.0001) >#   ygOrigin                - Southern boundary latitude (degrees)
(PID.TID 0000.0001) >#
(PID.TID 0000.0001) > &PARM04
(PID.TID 0000.0001) > usingSphericalPolarGrid=.TRUE.,
(PID.TID 0000.0001) > delX=20*2.E0,
(PID.TID 0000.0001) > delY=16*2.E0,
(PID.TID 0000.0001) > delZ= 10., 10., 15., 20., 20., 25., 35., 50., 75.,
(PID.TID 0000.0001) >       100., 150., 200., 275., 350., 415., 450.,
(PID.TID 0000.0001) >       500., 500., 500., 500., 500., 500., 500.,
(PID.TID 0000.0001) > ygOrigin=46.,
(PID.TID 0000.0001) > xgOrigin=280.,
(PID.TID 0000.0001) > rSphere = 6371.D3,
(PID.TID 0000.0001) > /
(PID.TID 0000.0001) >
(PID.TID 0000.0001) ># Input datasets
(PID.TID 0000.0001) >#
(PID.TID 0000.0001) >#   bathyFile       - File containing bathymetry
(PID.TID 0000.0001) >#   hydrogThetaFile - File containing initial potential temperature data
(PID.TID 0000.0001) >#   hydrogSaltFile  - File containing initial salinity data
(PID.TID 0000.0001) >#   zonalWindFile   - File containing zonal wind data
(PID.TID 0000.0001) >#   meridWindFile   - File containing meridional wind data
(PID.TID 0000.0001) >#   thetaClimFile   - File containing theta climatology used for relaxation
(PID.TID 0000.0001) >#   saltClimFile    - File containing salt climatology used for relaxation
(PID.TID 0000.0001) >#
(PID.TID 0000.0001) > &PARM05
(PID.TID 0000.0001) > bathyFile       = 'bathy.labsea1979',
(PID.TID 0000.0001) > hydrogThetaFile = 'LevCli_temp.labsea1979',
(PID.TID 0000.0001) > hydrogSaltFile  = 'LevCli_salt.labsea1979',
(PID.TID 0000.0001) > /
(PID.TID 0000.0001) >
(PID.TID 0000.0001) 
(PID.TID 0000.0001)  INI_PARMS ; starts to read PARM01
(PID.TID 0000.0001)  INI_PARMS ; read PARM01 : OK
(PID.TID 0000.0001)  INI_PARMS ; starts to read PARM02
(PID.TID 0000.0001)  INI_PARMS ; read PARM02 : OK
(PID.TID 0000.0001)  INI_PARMS ; starts to read PARM03
(PID.TID 0000.0001)  INI_PARMS ; read PARM03 : OK
(PID.TID 0000.0001)  INI_PARMS ; starts to read PARM04
(PID.TID 0000.0001)  INI_PARMS ; read PARM04 : OK
(PID.TID 0000.0001)  INI_PARMS ; starts to read PARM05
(PID.TID 0000.0001)  INI_PARMS ; read PARM05 : OK
(PID.TID 0000.0001)  INI_PARMS: finished reading file "data"
(PID.TID 0000.0001)  PACKAGES_BOOT: opening data.pkg
(PID.TID 0000.0001)  OPEN_COPY_DATA_FILE: opening file data.pkg
(PID.TID 0000.0001) // =======================================================
(PID.TID 0000.0001) // Parameter file "data.pkg"
(PID.TID 0000.0001) // =======================================================
(PID.TID 0000.0001) ># Packages
(PID.TID 0000.0001) > &PACKAGES
(PID.TID 0000.0001) >  useGMRedi = .TRUE.,
(PID.TID 0000.0001) >  useKPP    = .TRUE.,
(PID.TID 0000.0001) >  useEXF    = .TRUE.,
(PID.TID 0000.0001) >  useSEAICE = .FALSE.,
(PID.TID 0000.0001) >  useDiagnostics = .FALSE.,
(PID.TID 0000.0001) >  useMNC    = .TRUE.,
(PID.TID 0000.0001) >  useECCO   = .TRUE.,
(PID.TID 0000.0001) >  useGrdchk = .TRUE.,
(PID.TID 0000.0001) > /
(PID.TID 0000.0001) 
(PID.TID 0000.0001)  PACKAGES_BOOT: finished reading data.pkg
(PID.TID 0000.0001)  PACKAGES_BOOT: On/Off package Summary
 --------  pkgs with a standard "usePKG" On/Off switch in "data.pkg":  --------
 pkg/kpp                  compiled   and   used ( useKPP                   = T )
 pkg/gmredi               compiled   and   used ( useGMRedi                = T )
 pkg/down_slope           compiled but not used ( useDOWN_SLOPE            = F )
 pkg/cal                  compiled   and   used ( useCAL                   = T )
 pkg/exf                  compiled   and   used ( useEXF                   = T )
 pkg/autodiff             compiled   and   used ( useAUTODIFF              = T )
 pkg/grdchk               compiled   and   used ( useGrdchk                = T )
 pkg/ecco                 compiled   and   used ( useECCO                  = T )
 pkg/ctrl                 compiled   and   used ( useCTRL                  = T )
 pkg/sbo                  compiled but not used ( useSBO                   = F )
 pkg/seaice               compiled but not used ( useSEAICE                = F )
 pkg/salt_plume           compiled but not used ( useSALT_PLUME            = F )
 pkg/diagnostics          compiled but not used ( useDiagnostics           = F )
 pkg/mnc                  compiled   and   used ( useMNC                   = T )
 -------- pkgs without standard "usePKG" On/Off switch in "data.pkg":  --------
 pkg/generic_advdiff      compiled   and   used ( useGAD                   = T )
 pkg/mom_common           compiled   and   used ( momStepping              = T )
 pkg/mom_vecinv           compiled but not used ( +vectorInvariantMomentum = F )
 pkg/mom_fluxform         compiled   and   used ( & not vectorInvariantMom = T )
 pkg/cd_code              compiled   and   used ( useCDscheme              = T )
 pkg/monitor              compiled   and   used ( monitorFreq > 0.         = T )
 pkg/debug                compiled but not used ( debugMode                = F )
 pkg/rw                   compiled   and   used
 pkg/mdsio                compiled   and   used
 pkg/autodiff             compiled   and   used
 pkg/cost                 compiled   and   used
(PID.TID 0000.0001)  PACKAGES_BOOT: End of package Summary
(PID.TID 0000.0001) 
(PID.TID 0000.0001)  MNC_READPARMS: opening file 'data.mnc'
(PID.TID 0000.0001)  OPEN_COPY_DATA_FILE: opening file data.mnc
(PID.TID 0000.0001) // =======================================================
(PID.TID 0000.0001) // Parameter file "data.mnc"
(PID.TID 0000.0001) // =======================================================
(PID.TID 0000.0001) ># Example "data.mnc" file
(PID.TID 0000.0001) ># Lines beginning "#" are comments
(PID.TID 0000.0001) > &MNC_01
(PID.TID 0000.0001) ># mnc_echo_gvtypes=.FALSE.,
(PID.TID 0000.0001) ># mnc_use_indir=.FALSE.,
(PID.TID 0000.0001) > mnc_use_outdir=.TRUE.,
(PID.TID 0000.0001) > mnc_outdir_str='mnc_test_',
(PID.TID 0000.0001) >#mnc_outdir_date=.TRUE.,
(PID.TID 0000.0001) > monitor_mnc=.FALSE.,
(PID.TID 0000.0001) >#snapshot_mnc=.FALSE.,
(PID.TID 0000.0001) >#timeave_mnc=.FALSE.,
(PID.TID 0000.0001) > pickup_write_mnc=.FALSE.,
(PID.TID 0000.0001) > pickup_read_mnc=.FALSE.,
(PID.TID 0000.0001) > /
(PID.TID 0000.0001) ># Note: Some systems use & as the
(PID.TID 0000.0001) ># namelist terminator. Other systems
(PID.TID 0000.0001) ># use a / character (as shown here).
(PID.TID 0000.0001) 
(PID.TID 0000.0001)  MNC_READPARMS: finished reading data.mnc
(PID.TID 0000.0001) CAL_READPARMS: opening data.cal
(PID.TID 0000.0001)  OPEN_COPY_DATA_FILE: opening file data.cal
(PID.TID 0000.0001) // =======================================================
(PID.TID 0000.0001) // Parameter file "data.cal"
(PID.TID 0000.0001) // =======================================================
(PID.TID 0000.0001) >#
(PID.TID 0000.0001) ># *******************
(PID.TID 0000.0001) ># Calendar Parameters
(PID.TID 0000.0001) ># *******************
(PID.TID 0000.0001) > &CAL_NML
(PID.TID 0000.0001) > TheCalendar='gregorian',
(PID.TID 0000.0001) ># TheCalendar='model',
(PID.TID 0000.0001) > startDate_1=19790101,
(PID.TID 0000.0001) > startDate_2=000000,
(PID.TID 0000.0001) > /
(PID.TID 0000.0001) 
(PID.TID 0000.0001) CAL_READPARMS: finished reading data.cal
(PID.TID 0000.0001) EXF_READPARMS: opening data.exf
(PID.TID 0000.0001)  OPEN_COPY_DATA_FILE: opening file data.exf
(PID.TID 0000.0001) // =======================================================
(PID.TID 0000.0001) // Parameter file "data.exf"
(PID.TID 0000.0001) // =======================================================
(PID.TID 0000.0001) >#
(PID.TID 0000.0001) ># *********************
(PID.TID 0000.0001) ># External Forcing Data
(PID.TID 0000.0001) ># *********************
(PID.TID 0000.0001) > &EXF_NML_01
(PID.TID 0000.0001) >#
(PID.TID 0000.0001) > useExfCheckRange  = .TRUE.,
(PID.TID 0000.0001) > repeatPeriod      = 31622400.0,
(PID.TID 0000.0001) > exf_iprec         = 32,
(PID.TID 0000.0001) >#
(PID.TID 0000.0001) > /
(PID.TID 0000.0001) >
(PID.TID 0000.0001) ># *********************
(PID.TID 0000.0001) > &EXF_NML_02
(PID.TID 0000.0001) >#
(PID.TID 0000.0001) > hfluxstartdate1   = 19781216,
(PID.TID 0000.0001) > hfluxstartdate2   = 180000,
(PID.TID 0000.0001) > hfluxperiod       = 2635200.0,
(PID.TID 0000.0001) >#
(PID.TID 0000.0001) > sfluxstartdate1   = 19781216,
(PID.TID 0000.0001) > sfluxstartdate2   = 180000,
(PID.TID 0000.0001) > sfluxperiod       = 2635200.0,
(PID.TID 0000.0001) >#
(PID.TID 0000.0001) > ustressstartdate1 = 19781216,
(PID.TID 0000.0001) > ustressstartdate2 = 180000,
(PID.TID 0000.0001) > ustressperiod     = 2635200.0,
(PID.TID 0000.0001) >#
(PID.TID 0000.0001) > vstressstartdate1 = 19781216,
(PID.TID 0000.0001) > vstressstartdate2 = 180000,
(PID.TID 0000.0001) > vstressperiod     = 2635200.0,
(PID.TID 0000.0001) >#
(PID.TID 0000.0001) > atempstartdate1   = 19781216,
(PID.TID 0000.0001) > atempstartdate2   = 180000,
(PID.TID 0000.0001) > atempperiod       = 2635200.0,
(PID.TID 0000.0001) >#
(PID.TID 0000.0001) > aqhstartdate1     = 19781216,
(PID.TID 0000.0001) > aqhstartdate2     = 180000,
(PID.TID 0000.0001) > aqhperiod         = 2635200.0,
(PID.TID 0000.0001) >#
(PID.TID 0000.0001) >#evapstartdate1    = 19781216,
(PID.TID 0000.0001) >#evapstartdate2    = 180000,
(PID.TID 0000.0001) >#evapperiod        = 2635200.0,
(PID.TID 0000.0001) >#
(PID.TID 0000.0001) > precipstartdate1  = 19781216,
(PID.TID 0000.0001) > precipstartdate2  = 180000,
(PID.TID 0000.0001) > precipperiod      = 2635200.0,
(PID.TID 0000.0001) >#
(PID.TID 0000.0001) > uwindstartdate1   = 19781216,
(PID.TID 0000.0001) > uwindstartdate2   = 180000,
(PID.TID 0000.0001) > uwindperiod       = 2635200.0,
(PID.TID 0000.0001) >#
(PID.TID 0000.0001) > vwindstartdate1   = 19781216,
(PID.TID 0000.0001) > vwindstartdate2   = 180000,
(PID.TID 0000.0001) > vwindperiod       = 2635200.0,
(PID.TID 0000.0001) >#
(PID.TID 0000.0001) > swfluxstartdate1  = 19781216,
(PID.TID 0000.0001) > swfluxstartdate2  = 180000,
(PID.TID 0000.0001) > swfluxperiod      = 2635200.0,
(PID.TID 0000.0001) >#
(PID.TID 0000.0001) > lwfluxstartdate1  = 19781216,
(PID.TID 0000.0001) > lwfluxstartdate2  = 180000,
(PID.TID 0000.0001) > lwfluxperiod      = 2635200.0,
(PID.TID 0000.0001) >#
(PID.TID 0000.0001) > swdownstartdate1  = 19781216,
(PID.TID 0000.0001) > swdownstartdate2  = 180000,
(PID.TID 0000.0001) > swdownperiod      = 2635200.0,
(PID.TID 0000.0001) >#
(PID.TID 0000.0001) > lwdownstartdate1  = 19781216,
(PID.TID 0000.0001) > lwdownstartdate2  = 180000,
(PID.TID 0000.0001) > lwdownperiod      = 2635200.0,
(PID.TID 0000.0001) >#
(PID.TID 0000.0001) > climsststartdate1  = 19781216,
(PID.TID 0000.0001) > climsststartdate2  = 180000,
(PID.TID 0000.0001) > climsstperiod      = 2635200.0,
(PID.TID 0000.0001) > climsstTauRelax    = 0.0,
(PID.TID 0000.0001) >#
(PID.TID 0000.0001) > climsssstartdate1  = 19781216,
(PID.TID 0000.0001) > climsssstartdate2  = 180000,
(PID.TID 0000.0001) > climsssperiod      = 2635200.0,
(PID.TID 0000.0001) > climsssTauRelax    = 4142330.0,
(PID.TID 0000.0001) >#
(PID.TID 0000.0001) > hfluxfile         = ' ',
(PID.TID 0000.0001) > sfluxfile         = ' ',
(PID.TID 0000.0001) > ustressfile       = ' ',
(PID.TID 0000.0001) > vstressfile       = ' ',
(PID.TID 0000.0001) > atempfile         = 'tair.labsea1979',
(PID.TID 0000.0001) > aqhfile           = 'qa.labsea1979',
(PID.TID 0000.0001) > uwindfile         = 'u10m.labsea1979',
(PID.TID 0000.0001) > vwindfile         = 'v10m.labsea1979',
(PID.TID 0000.0001) >#evapfile          = 'evap.labsea1979',
(PID.TID 0000.0001) > precipfile        = 'prate.labsea1979',
(PID.TID 0000.0001) > lwfluxfile        = ' ',
(PID.TID 0000.0001) > swfluxfile        = ' ',
(PID.TID 0000.0001) > lwdownfile        = 'flo.labsea1979',
(PID.TID 0000.0001) > swdownfile        = 'fsh.labsea1979',
(PID.TID 0000.0001) > runoffFile        = ' '
(PID.TID 0000.0001) > climsstfile       = ' ',
(PID.TID 0000.0001) > climsssfile       = 'SSS_monthly.labsea1979',
(PID.TID 0000.0001) >#
(PID.TID 0000.0001) > /
(PID.TID 0000.0001) >
(PID.TID 0000.0001) ># *********************
(PID.TID 0000.0001) > &EXF_NML_03
(PID.TID 0000.0001) > /
(PID.TID 0000.0001) >
(PID.TID 0000.0001) ># *********************
(PID.TID 0000.0001) > &EXF_NML_04
(PID.TID 0000.0001) > /
(PID.TID 0000.0001) 
(PID.TID 0000.0001) EXF_READPARMS: reading EXF_NML_01
(PID.TID 0000.0001) EXF_READPARMS: reading EXF_NML_02
(PID.TID 0000.0001) EXF_READPARMS: reading EXF_NML_03
(PID.TID 0000.0001) EXF_READPARMS: finished reading data.exf
(PID.TID 0000.0001)  KPP_READPARMS: opening data.kpp
(PID.TID 0000.0001)  OPEN_COPY_DATA_FILE: opening file data.kpp
(PID.TID 0000.0001) // =======================================================
(PID.TID 0000.0001) // Parameter file "data.kpp"
(PID.TID 0000.0001) // =======================================================
(PID.TID 0000.0001) ># KPP parameters
(PID.TID 0000.0001) > &KPP_PARM01
(PID.TID 0000.0001) > KPPmixingMaps   = .FALSE.,
(PID.TID 0000.0001) > KPPwriteState   = .TRUE.,
(PID.TID 0000.0001) > KPP_ghatUseTotalDiffus=.TRUE.,
(PID.TID 0000.0001) > /
(PID.TID 0000.0001) 
(PID.TID 0000.0001)  KPP_READPARMS ; starts to read KPP_PARM01
(PID.TID 0000.0001)  KPP_READPARMS ; read KPP_PARM01 : OK
(PID.TID 0000.0001)  KPP_READPARMS: finished reading data.kpp
(PID.TID 0000.0001)  GM_READPARMS: opening data.gmredi
(PID.TID 0000.0001)  OPEN_COPY_DATA_FILE: opening file data.gmredi
(PID.TID 0000.0001) // =======================================================
(PID.TID 0000.0001) // Parameter file "data.gmredi"
(PID.TID 0000.0001) // =======================================================
(PID.TID 0000.0001) ># GM+Redi package parameters:
(PID.TID 0000.0001) >#     GM_Small_Number  :: epsilon used in computing the slope
(PID.TID 0000.0001) >#     GM_slopeSqCutoff :: slope^2 cut-off value
(PID.TID 0000.0001) >
(PID.TID 0000.0001) >#-from MOM :
(PID.TID 0000.0001) ># GM_background_K: 	G & Mc.W  diffusion coefficient
(PID.TID 0000.0001) ># GM_maxSlope    :	max slope of isopycnals
(PID.TID 0000.0001) ># GM_Scrit       :	transition for scaling diffusion coefficient
(PID.TID 0000.0001) ># GM_Sd          :	half width scaling for diffusion coefficient
(PID.TID 0000.0001) ># GM_taper_scheme:	slope clipping or one of the tapering schemes
(PID.TID 0000.0001) ># GM_Kmin_horiz  :	horizontal diffusion minimum value
(PID.TID 0000.0001) >
(PID.TID 0000.0001) >#-Option parameters (needs to "define" options in GMREDI_OPTIONS.h")
(PID.TID 0000.0001) ># GM_isopycK     :	isopycnal diffusion coefficient (default=GM_background_K)
(PID.TID 0000.0001) ># GM_AdvForm     :	turn on GM Advective form       (default=Skew flux form)
(PID.TID 0000.0001) >
(PID.TID 0000.0001) > &GM_PARM01
(PID.TID 0000.0001) >  GM_Small_Number  = 1.D-20,
(PID.TID 0000.0001) >  GM_slopeSqCutoff = 1.D+08,
(PID.TID 0000.0001) >  GM_AdvForm         = .FALSE.,
(PID.TID 0000.0001) >#  GM_isopycK         = 1.1D+3,
(PID.TID 0000.0001) >#  GM_background_K    = 0.9D+3,
(PID.TID 0000.0001) >  GM_background_K    = 1.D+3,
(PID.TID 0000.0001) >  GM_taper_scheme    = 'dm95',
(PID.TID 0000.0001) >  GM_maxSlope        = 1.D-2,
(PID.TID 0000.0001) >  GM_Kmin_horiz      = 50.,
(PID.TID 0000.0001) >  GM_Scrit           = 4.D-3,
(PID.TID 0000.0001) >  GM_Sd              = 1.D-3,
(PID.TID 0000.0001) >#  GM_Visbeck_alpha   = 1.5D-2,
(PID.TID 0000.0001) >  GM_Visbeck_alpha   = 0.,
(PID.TID 0000.0001) >  GM_Visbeck_length  = 2.D+5,
(PID.TID 0000.0001) >  GM_Visbeck_depth   = 1.D+3,
(PID.TID 0000.0001) >  GM_Visbeck_maxval_K= 2.5D+3,
(PID.TID 0000.0001) > /
(PID.TID 0000.0001) >
(PID.TID 0000.0001) >
(PID.TID 0000.0001) 
(PID.TID 0000.0001)  GM_READPARMS: finished reading data.gmredi
(PID.TID 0000.0001) AUTODIFF_READPARMS: opening data.autodiff
(PID.TID 0000.0001)  OPEN_COPY_DATA_FILE: opening file data.autodiff
(PID.TID 0000.0001) // =======================================================
(PID.TID 0000.0001) // Parameter file "data.autodiff"
(PID.TID 0000.0001) // =======================================================
(PID.TID 0000.0001) ># =========================
(PID.TID 0000.0001) ># pkg AUTODIFF parameters :
(PID.TID 0000.0001) ># =========================
(PID.TID 0000.0001) >#  inAdExact :: get an exact adjoint (no approximation) (def=.True.)
(PID.TID 0000.0001) >#
(PID.TID 0000.0001) > &AUTODIFF_PARM01
(PID.TID 0000.0001) ># inAdExact = .FALSE.,
(PID.TID 0000.0001) ># useKPPinAdMode = .FALSE.,
(PID.TID 0000.0001) ># useGMRediInAdMode = .FALSE.,
(PID.TID 0000.0001) > /
(PID.TID 0000.0001) 
(PID.TID 0000.0001) AUTODIFF_READPARMS: finished reading data.autodiff
(PID.TID 0000.0001) // ===================================
(PID.TID 0000.0001) // AUTODIFF parameters :
(PID.TID 0000.0001) // ===================================
(PID.TID 0000.0001) inAdExact = /* get an exact adjoint (no approximation) */
(PID.TID 0000.0001)                   T
(PID.TID 0000.0001)     ;
(PID.TID 0000.0001) useKPPinAdMode = /* use KPP in adjoint mode */
(PID.TID 0000.0001)                   T
(PID.TID 0000.0001)     ;
(PID.TID 0000.0001) useGMRediInAdMode = /* use GMRedi in adjoint mode */
(PID.TID 0000.0001)                   T
(PID.TID 0000.0001)     ;
(PID.TID 0000.0001) useSEAICEinAdMode = /* use SEAICE in adjoint mode */
(PID.TID 0000.0001)                   F
(PID.TID 0000.0001)     ;
(PID.TID 0000.0001) useGGL90inAdMode = /* use GGL90 in adjoint mode */
(PID.TID 0000.0001)                   F
(PID.TID 0000.0001)     ;
(PID.TID 0000.0001) useSALT_PLUMEinAdMode = /* use SALT_PLUME in adjoint mode */
(PID.TID 0000.0001)                   F
(PID.TID 0000.0001)     ;
(PID.TID 0000.0001) SEAICEuseDYNAMICSswitchInAd = /* switch On/Off SEAICE Dyn in AD mode */
(PID.TID 0000.0001)                   F
(PID.TID 0000.0001)     ;
(PID.TID 0000.0001) SEAICEuseFREEDRIFTswitchInAd= /* switch On/Off Free-Drift in AD mode */
(PID.TID 0000.0001)                   F
(PID.TID 0000.0001)     ;
(PID.TID 0000.0001) SEAICEapproxLevInAd = /* -1:SEAICE_FAKE, >0:other adjoint approximation */
(PID.TID 0000.0001)                       0
(PID.TID 0000.0001)     ;
(PID.TID 0000.0001) dumpAdVarExch = /* control adexch before dumpinp */
(PID.TID 0000.0001)                       2
(PID.TID 0000.0001)     ;
(PID.TID 0000.0001) mon_AdVarExch = /* control adexch before monitor */
(PID.TID 0000.0001)                       2
(PID.TID 0000.0001)     ;
(PID.TID 0000.0001) viscFacInAd = /* viscosity factor for adjoint */
(PID.TID 0000.0001)                 1.000000000000000E+00
(PID.TID 0000.0001)     ;
(PID.TID 0000.0001) 
(PID.TID 0000.0001) OPTIM_READPARMS: opening data.optim
(PID.TID 0000.0001)  OPEN_COPY_DATA_FILE: opening file data.optim
(PID.TID 0000.0001) // =======================================================
(PID.TID 0000.0001) // Parameter file "data.optim"
(PID.TID 0000.0001) // =======================================================
(PID.TID 0000.0001) >#
(PID.TID 0000.0001) ># ********************************
(PID.TID 0000.0001) ># Off-line optimization parameters
(PID.TID 0000.0001) ># ********************************
(PID.TID 0000.0001) > &OPTIM
(PID.TID 0000.0001) > optimcycle=0,
(PID.TID 0000.0001) > /
(PID.TID 0000.0001) 
(PID.TID 0000.0001) OPTIM_READPARMS: finished reading data.optim
(PID.TID 0000.0001) CTRL_READPARMS: opening data.ctrl
(PID.TID 0000.0001)  OPEN_COPY_DATA_FILE: opening file data.ctrl
(PID.TID 0000.0001) // =======================================================
(PID.TID 0000.0001) // Parameter file "data.ctrl"
(PID.TID 0000.0001) // =======================================================
(PID.TID 0000.0001) >#
(PID.TID 0000.0001) >#
(PID.TID 0000.0001) ># *********************
(PID.TID 0000.0001) ># ECCO controlvariables
(PID.TID 0000.0001) ># *********************
(PID.TID 0000.0001) > &CTRL_NML
(PID.TID 0000.0001) ># doSinglePrecTapelev=.TRUE.,
(PID.TID 0000.0001) >#
(PID.TID 0000.0001) > xx_theta_file      ='xx_theta',
(PID.TID 0000.0001) > xx_salt_file       ='xx_salt',
(PID.TID 0000.0001) > xx_siarea_file     ='xx_siarea',
(PID.TID 0000.0001) > xx_siheff_file     ='xx_siheff',
(PID.TID 0000.0001) > xx_sihsnow_file    ='xx_sihsnow',
(PID.TID 0000.0001) >#
(PID.TID 0000.0001) > xx_hfluxstartdate1 = 19790101,
(PID.TID 0000.0001) > xx_hfluxstartdate2 = 000000,
(PID.TID 0000.0001) > xx_hfluxperiod     = 864000.0,
(PID.TID 0000.0001) > xx_hflux_file      = 'xx_hfl',
(PID.TID 0000.0001) >#
(PID.TID 0000.0001) > xx_sfluxstartdate1 = 19790101,
(PID.TID 0000.0001) > xx_sfluxstartdate2 = 000000,
(PID.TID 0000.0001) > xx_sfluxperiod     = 864000.0,
(PID.TID 0000.0001) > xx_sflux_file      = 'xx_sfl',
(PID.TID 0000.0001) >#
(PID.TID 0000.0001) > xx_tauustartdate1 = 19790101,
(PID.TID 0000.0001) > xx_tauustartdate2 = 000000,
(PID.TID 0000.0001) > xx_tauuperiod     = 864000.0,
(PID.TID 0000.0001) > xx_tauu_file      = 'xx_tauu',
(PID.TID 0000.0001) >#
(PID.TID 0000.0001) > xx_tauvstartdate1 = 19790101,
(PID.TID 0000.0001) > xx_tauvstartdate2 = 000000,
(PID.TID 0000.0001) > xx_tauvperiod     = 864000.0,
(PID.TID 0000.0001) > xx_tauv_file      = 'xx_tauv',
(PID.TID 0000.0001) >#
(PID.TID 0000.0001) > xx_atempstartdate1 = 19790101,
(PID.TID 0000.0001) > xx_atempstartdate2 = 000000,
(PID.TID 0000.0001) > xx_atempperiod     = 864000.0,
(PID.TID 0000.0001) > xx_atemp_file      = 'xx_atemp',
(PID.TID 0000.0001) >#
(PID.TID 0000.0001) > xx_aqhstartdate1 = 19790101,
(PID.TID 0000.0001) > xx_aqhstartdate2 = 000000,
(PID.TID 0000.0001) > xx_aqhperiod     = 864000.0,
(PID.TID 0000.0001) > xx_aqh_file      = 'xx_aqh',
(PID.TID 0000.0001) >#
(PID.TID 0000.0001) > xx_precipstartdate1 = 19790101,
(PID.TID 0000.0001) > xx_precipstartdate2 = 000000,
(PID.TID 0000.0001) > xx_precipperiod     = 864000.0,
(PID.TID 0000.0001) > xx_precip_file      = 'xx_precip',
(PID.TID 0000.0001) >#
(PID.TID 0000.0001) > xx_swfluxstartdate1 = 19790101,
(PID.TID 0000.0001) > xx_swfluxstartdate2 = 000000,
(PID.TID 0000.0001) > xx_swfluxperiod     = 864000.0,
(PID.TID 0000.0001) > xx_swflux_file      = 'xx_swflux',
(PID.TID 0000.0001) >#
(PID.TID 0000.0001) > xx_swdownstartdate1 = 19790101,
(PID.TID 0000.0001) > xx_swdownstartdate2 = 000000,
(PID.TID 0000.0001) > xx_swdownperiod     = 864000.0,
(PID.TID 0000.0001) > xx_swdown_file      = 'xx_swdown',
(PID.TID 0000.0001) >#
(PID.TID 0000.0001) > xx_lwfluxstartdate1 = 19790101,
(PID.TID 0000.0001) > xx_lwfluxstartdate2 = 000000,
(PID.TID 0000.0001) > xx_lwfluxperiod     = 864000.0,
(PID.TID 0000.0001) > xx_lwflux_file      = 'xx_lwflux',
(PID.TID 0000.0001) >#
(PID.TID 0000.0001) > xx_lwdownstartdate1 = 19790101,
(PID.TID 0000.0001) > xx_lwdownstartdate2 = 000000,
(PID.TID 0000.0001) > xx_lwdownperiod     = 864000.0,
(PID.TID 0000.0001) > xx_lwdown_file      = 'xx_lwdown',
(PID.TID 0000.0001) >#
(PID.TID 0000.0001) > xx_evapstartdate1 = 19790101,
(PID.TID 0000.0001) > xx_evapstartdate2 = 000000,
(PID.TID 0000.0001) > xx_evapperiod     = 864000.0,
(PID.TID 0000.0001) > xx_evap_file      = 'xx_evap',
(PID.TID 0000.0001) >#
(PID.TID 0000.0001) > xx_snowprecipstartdate1 = 19790101,
(PID.TID 0000.0001) > xx_snowprecipstartdate2 = 000000,
(PID.TID 0000.0001) > xx_snowprecipperiod     = 864000.0,
(PID.TID 0000.0001) > xx_snowprecip_file      = 'xx_snowprecip',
(PID.TID 0000.0001) >#
(PID.TID 0000.0001) > xx_apressurestartdate1 = 19790101,
(PID.TID 0000.0001) > xx_apressurestartdate2 = 000000,
(PID.TID 0000.0001) > xx_apressureperiod     = 864000.0,
(PID.TID 0000.0001) > xx_apressure_file      = 'xx_apressure',
(PID.TID 0000.0001) >#
(PID.TID 0000.0001) > xx_uwindstartdate1 = 19790101,
(PID.TID 0000.0001) > xx_uwindstartdate2 = 000000,
(PID.TID 0000.0001) > xx_uwindperiod     = 864000.0,
(PID.TID 0000.0001) > xx_uwind_file      = 'xx_uwind',
(PID.TID 0000.0001) >#
(PID.TID 0000.0001) > xx_vwindstartdate1 = 19790101,
(PID.TID 0000.0001) > xx_vwindstartdate2 = 000000,
(PID.TID 0000.0001) > xx_vwindperiod     = 864000.0,
(PID.TID 0000.0001) > xx_vwind_file      = 'xx_vwind',
(PID.TID 0000.0001) >#
(PID.TID 0000.0001) > xx_sststartdate1 = 19790101,
(PID.TID 0000.0001) > xx_sststartdate2 = 000000,
(PID.TID 0000.0001) > xx_sstperiod     = 864000.0,
(PID.TID 0000.0001) > xx_sst_file      = 'xx_sst',
(PID.TID 0000.0001) >#
(PID.TID 0000.0001) > xx_sssstartdate1 = 19790101,
(PID.TID 0000.0001) > xx_sssstartdate2 = 000000,
(PID.TID 0000.0001) > xx_sssperiod     = 864000.0,
(PID.TID 0000.0001) > xx_sss_file      = 'xx_sss',
(PID.TID 0000.0001) >#
(PID.TID 0000.0001) > /
(PID.TID 0000.0001) >#
(PID.TID 0000.0001) ># *********************
(PID.TID 0000.0001) ># names for ctrl_pack/unpack
(PID.TID 0000.0001) ># *********************
(PID.TID 0000.0001) > &CTRL_PACKNAMES
(PID.TID 0000.0001) > /
(PID.TID 0000.0001) 
(PID.TID 0000.0001) CTRL_READPARMS: finished reading data.ctrl
(PID.TID 0000.0001) COST_READPARMS: opening data.cost
(PID.TID 0000.0001)  OPEN_COPY_DATA_FILE: opening file data.cost
(PID.TID 0000.0001) // =======================================================
(PID.TID 0000.0001) // Parameter file "data.cost"
(PID.TID 0000.0001) // =======================================================
(PID.TID 0000.0001) >#
(PID.TID 0000.0001) >#
(PID.TID 0000.0001) ># ******************
(PID.TID 0000.0001) ># cost function
(PID.TID 0000.0001) ># ******************
(PID.TID 0000.0001) > &COST_NML
(PID.TID 0000.0001) > /
(PID.TID 0000.0001) 
(PID.TID 0000.0001) COST_READPARMS: finished reading data.cost
(PID.TID 0000.0001) GRDCHK_READPARMS: opening data.grdchk
(PID.TID 0000.0001)  OPEN_COPY_DATA_FILE: opening file data.grdchk
(PID.TID 0000.0001) // =======================================================
(PID.TID 0000.0001) // Parameter file "data.grdchk"
(PID.TID 0000.0001) // =======================================================
(PID.TID 0000.0001) >
(PID.TID 0000.0001) ># *******************
(PID.TID 0000.0001) ># ECCO gradient check
(PID.TID 0000.0001) ># *******************
(PID.TID 0000.0001) > &GRDCHK_NML
(PID.TID 0000.0001) > grdchk_eps       = 1.d-4,
(PID.TID 0000.0001) ># nbeg             = 4,
(PID.TID 0000.0001) > iGloPos          = 4,
(PID.TID 0000.0001) > jGloPos          = 8,
(PID.TID 0000.0001) > kGloPos          = 1,
(PID.TID 0000.0001) > nstep            = 1,
(PID.TID 0000.0001) > nend             = 4,
(PID.TID 0000.0001) > grdchkvarindex   = 7,
(PID.TID 0000.0001) > /
(PID.TID 0000.0001) 
(PID.TID 0000.0001) GRDCHK_READPARMS: finished reading data.grdchk
(PID.TID 0000.0001) 
(PID.TID 0000.0001) // =======================================================
(PID.TID 0000.0001) // Gradient check configuration  >>> START <<<
(PID.TID 0000.0001) // =======================================================
(PID.TID 0000.0001) 
(PID.TID 0000.0001)   grdchkvarindex :                          7
(PID.TID 0000.0001)   eps:                              0.100E-03
(PID.TID 0000.0001)   First location:                           0
(PID.TID 0000.0001)   Last location:                            4
(PID.TID 0000.0001)   Increment:                                1
(PID.TID 0000.0001)   grdchkWhichProc:                          0
(PID.TID 0000.0001)   iLocTile =       1  ,    jLocTile =       1
(PID.TID 0000.0001) 
(PID.TID 0000.0001) // =======================================================
(PID.TID 0000.0001) // Gradient check configuration  >>> END <<<
(PID.TID 0000.0001) // =======================================================
(PID.TID 0000.0001) 
(PID.TID 0000.0001) ECCO_READPARMS: opening data.ecco
(PID.TID 0000.0001)  OPEN_COPY_DATA_FILE: opening file data.ecco
(PID.TID 0000.0001) // =======================================================
(PID.TID 0000.0001) // Parameter file "data.ecco"
(PID.TID 0000.0001) // =======================================================
(PID.TID 0000.0001) >#
(PID.TID 0000.0001) >#
(PID.TID 0000.0001) ># ******************
(PID.TID 0000.0001) ># ECCO cost function
(PID.TID 0000.0001) ># ******************
(PID.TID 0000.0001) > &ECCO_COST_NML
(PID.TID 0000.0001) > data_errfile ='data.err',
(PID.TID 0000.0001) > tbarfile   = 'tbar',
(PID.TID 0000.0001) > sbarfile   = 'sbar',
(PID.TID 0000.0001) > psbarfile  = 'psbar',
(PID.TID 0000.0001) >#
(PID.TID 0000.0001) > topexstartdate1 = 19790101,
(PID.TID 0000.0001) > topexstartdate2 = 00000,
(PID.TID 0000.0001) > topexperiod     = 2635200.0,
(PID.TID 0000.0001) > topexfile       = 'labsea_TP_fields',
(PID.TID 0000.0001) > mdtdatfile      = 'labsea_TP_mean',
(PID.TID 0000.0001) >#
(PID.TID 0000.0001) > ersfile       = 'labsea_ERS_fields',
(PID.TID 0000.0001) > ersstartdate1 = 19790101,
(PID.TID 0000.0001) > ersstartdate2 = 00000,
(PID.TID 0000.0001) > ersperiod     = 2635200.0,
(PID.TID 0000.0001) >#
(PID.TID 0000.0001) > sststartdate1        = 19790101,
(PID.TID 0000.0001) > sststartdate2        = 00000,
(PID.TID 0000.0001) > sstdatfile           = 'labsea_SST_fields',
(PID.TID 0000.0001) > ssterrfile           = 'sigma_sst.bin',
(PID.TID 0000.0001) > tdatfile             = 'labsea_Lev.ptmp',
(PID.TID 0000.0001) > temperrfile          = 'sigma_theta.bin',
(PID.TID 0000.0001) > sdatfile             = 'labsea_Lev.salt',
(PID.TID 0000.0001) > salterrfile          = 'sigma_salt.bin',
(PID.TID 0000.0001) > ssh_errfile          = 'labsea_ssh.err',
(PID.TID 0000.0001) > geoid_errfile        = 'labsea_geoid.err',
(PID.TID 0000.0001) > geoid_covariancefile = ' ',
(PID.TID 0000.0001) >#
(PID.TID 0000.0001) > hflux_errfile        = ' ',
(PID.TID 0000.0001) > sflux_errfile        = ' ',
(PID.TID 0000.0001) > tauu_errfile         = ' ',
(PID.TID 0000.0001) > tauv_errfile         = ' ',
(PID.TID 0000.0001) > atemp_errfile        = ' ',
(PID.TID 0000.0001) > aqh_errfile          = ' ',
(PID.TID 0000.0001) > precip_errfile       = ' ',
(PID.TID 0000.0001) > swflux_errfile       = ' ',
(PID.TID 0000.0001) > swdown_errfile       = ' ',
(PID.TID 0000.0001) > uwind_errfile        = ' ',
(PID.TID 0000.0001) > vwind_errfile        = ' ',
(PID.TID 0000.0001) >#
(PID.TID 0000.0001) > whflux0              = 20.,
(PID.TID 0000.0001) > wsflux0              = 3.0E-8,
(PID.TID 0000.0001) > wtau0                = 2.0E-2,
(PID.TID 0000.0001) > watemp0              = 0.5,
(PID.TID 0000.0001) > waqh0                = 5.E-4,
(PID.TID 0000.0001) > wprecip0             = 1.E-8,
(PID.TID 0000.0001) > wswflux0             = 20.,
(PID.TID 0000.0001) > wswdown0             = 20.,
(PID.TID 0000.0001) > wlwflux0             = 20.,
(PID.TID 0000.0001) > wlwdown0             = 20.,
(PID.TID 0000.0001) > wwind0               = 1.0,
(PID.TID 0000.0001) > wevap0               = 1.0,
(PID.TID 0000.0001) > wsnowprecip0         = 1.0,
(PID.TID 0000.0001) > wapressure0          = 1.0,
(PID.TID 0000.0001) >#
(PID.TID 0000.0001) > wmean_hflux          = 30.,
(PID.TID 0000.0001) > wmean_sflux          = 1.6E-8,
(PID.TID 0000.0001) > wmean_tau            = 0.1,
(PID.TID 0000.0001) > wmean_atemp          = 1.,
(PID.TID 0000.0001) > wmean_aqh            = 1.E-3,
(PID.TID 0000.0001) > wmean_precip         = 1.5E-8,
(PID.TID 0000.0001) > wmean_swflux         = 20.,
(PID.TID 0000.0001) > wmean_swdown         = 20.,
(PID.TID 0000.0001) > wmean_lwdown         = 20.,
(PID.TID 0000.0001) > wmean_lwflux         = 20.,
(PID.TID 0000.0001) > wmean_wind           = 2.0,
(PID.TID 0000.0001) > wmean_evap           = 1.0,
(PID.TID 0000.0001) > wmean_snowprecip     = 1.0,
(PID.TID 0000.0001) > wmean_apressure      = 1.0,
(PID.TID 0000.0001) >#
(PID.TID 0000.0001) > mult_hmean = 1.,
(PID.TID 0000.0001) > mult_h     = 1.,
(PID.TID 0000.0001) > mult_temp  = 1.,
(PID.TID 0000.0001) > mult_salt  = 1.,
(PID.TID 0000.0001) > mult_sst   = 1.,
(PID.TID 0000.0001) > mult_hflux = 0.,
(PID.TID 0000.0001) > mult_sflux = 0.,
(PID.TID 0000.0001) > mult_tauu  = 0.,
(PID.TID 0000.0001) > mult_tauv  = 0.,
(PID.TID 0000.0001) > mult_atemp = 0.,
(PID.TID 0000.0001) > mult_aqh   = 0.,
(PID.TID 0000.0001) > mult_precip= 0.,
(PID.TID 0000.0001) > mult_swflux= 0.,
(PID.TID 0000.0001) > mult_swdown= 0.,
(PID.TID 0000.0001) > mult_uwind = 0.,
(PID.TID 0000.0001) > mult_vwind = 0.,
(PID.TID 0000.0001) >#
(PID.TID 0000.0001) > cost_iprec  = 64,
(PID.TID 0000.0001) > cost_yftype = 'RL',
(PID.TID 0000.0001) > /
(PID.TID 0000.0001) 
(PID.TID 0000.0001) ECCO_READPARMS: finished reading #1: ecco_cost_nml
(PID.TID 0000.0001) ECCO_READPARMS: done
(PID.TID 0000.0001) SET_PARMS: done
(PID.TID 0000.0001) Enter INI_VERTICAL_GRID: setInterFDr=    T ; setCenterDr=    F
(PID.TID 0000.0001) %MON XC_max                       =   3.1900000000000E+02
(PID.TID 0000.0001) %MON XC_min                       =   2.8100000000000E+02
(PID.TID 0000.0001) %MON XC_mean                      =   3.0000000000000E+02
(PID.TID 0000.0001) %MON XC_sd                        =   1.1532562594671E+01
(PID.TID 0000.0001) %MON XG_max                       =   3.1800000000000E+02
(PID.TID 0000.0001) %MON XG_min                       =   2.8000000000000E+02
(PID.TID 0000.0001) %MON XG_mean                      =   2.9900000000000E+02
(PID.TID 0000.0001) %MON XG_sd                        =   1.1532562594671E+01
(PID.TID 0000.0001) %MON DXC_max                      =   1.5166951523772E+05
(PID.TID 0000.0001) %MON DXC_min                      =   5.0026831972764E+04
(PID.TID 0000.0001) %MON DXC_mean                     =   1.0305926321463E+05
(PID.TID 0000.0001) %MON DXC_sd                       =   3.1375805318756E+04
(PID.TID 0000.0001) %MON DXF_max                      =   1.5166951523772E+05
(PID.TID 0000.0001) %MON DXF_min                      =   5.0026831972764E+04
(PID.TID 0000.0001) %MON DXF_mean                     =   1.0305926321463E+05
(PID.TID 0000.0001) %MON DXF_sd                       =   3.1375805318756E+04
(PID.TID 0000.0001) %MON DXG_max                      =   1.5448497309243E+05
(PID.TID 0000.0001) %MON DXG_min                      =   5.3800974869835E+04
(PID.TID 0000.0001) %MON DXG_mean                     =   1.0642630187324E+05
(PID.TID 0000.0001) %MON DXG_sd                       =   3.1081829200899E+04
(PID.TID 0000.0001) %MON DXV_max                      =   1.5448497309243E+05
(PID.TID 0000.0001) %MON DXV_min                      =   5.3800974869835E+04
(PID.TID 0000.0001) %MON DXV_mean                     =   1.0642630187324E+05
(PID.TID 0000.0001) %MON DXV_sd                       =   3.1081829200899E+04
(PID.TID 0000.0001) %MON YC_max                       =   7.7000000000000E+01
(PID.TID 0000.0001) %MON YC_min                       =   4.7000000000000E+01
(PID.TID 0000.0001) %MON YC_mean                      =   6.2000000000000E+01
(PID.TID 0000.0001) %MON YC_sd                        =   9.2195444572929E+00
(PID.TID 0000.0001) %MON YG_max                       =   7.6000000000000E+01
(PID.TID 0000.0001) %MON YG_min                       =   4.6000000000000E+01
(PID.TID 0000.0001) %MON YG_mean                      =   6.1000000000000E+01
(PID.TID 0000.0001) %MON YG_sd                        =   9.2195444572929E+00
(PID.TID 0000.0001) %MON DYC_max                      =   2.2238985328912E+05
(PID.TID 0000.0001) %MON DYC_min                      =   2.2238985328912E+05
(PID.TID 0000.0001) %MON DYC_mean                     =   2.2238985328912E+05
(PID.TID 0000.0001) %MON DYC_sd                       =   1.4551915228367E-10
(PID.TID 0000.0001) %MON DYF_max                      =   2.2238985328912E+05
(PID.TID 0000.0001) %MON DYF_min                      =   2.2238985328912E+05
(PID.TID 0000.0001) %MON DYF_mean                     =   2.2238985328912E+05
(PID.TID 0000.0001) %MON DYF_sd                       =   1.4551915228367E-10
(PID.TID 0000.0001) %MON DYG_max                      =   2.2238985328912E+05
(PID.TID 0000.0001) %MON DYG_min                      =   2.2238985328912E+05
(PID.TID 0000.0001) %MON DYG_mean                     =   2.2238985328912E+05
(PID.TID 0000.0001) %MON DYG_sd                       =   1.4551915228367E-10
(PID.TID 0000.0001) %MON DYU_max                      =   2.2238985328912E+05
(PID.TID 0000.0001) %MON DYU_min                      =   2.2238985328912E+05
(PID.TID 0000.0001) %MON DYU_mean                     =   2.2238985328912E+05
(PID.TID 0000.0001) %MON DYU_sd                       =   1.4551915228367E-10
(PID.TID 0000.0001) %MON RA_max                       =   3.3728048822756E+10
(PID.TID 0000.0001) %MON RA_min                       =   1.1124894996734E+10
(PID.TID 0000.0001) %MON RA_mean                      =   2.2918170839356E+10
(PID.TID 0000.0001) %MON RA_sd                        =   6.9773064942263E+09
(PID.TID 0000.0001) %MON RAW_max                      =   3.3728048822756E+10
(PID.TID 0000.0001) %MON RAW_min                      =   1.1124894996734E+10
(PID.TID 0000.0001) %MON RAW_mean                     =   2.2918170839356E+10
(PID.TID 0000.0001) %MON RAW_sd                       =   6.9773064942263E+09
(PID.TID 0000.0001) %MON RAS_max                      =   3.4354146294179E+10
(PID.TID 0000.0001) %MON RAS_min                      =   1.1964183470077E+10
(PID.TID 0000.0001) %MON RAS_mean                     =   2.3666928057229E+10
(PID.TID 0000.0001) %MON RAS_sd                       =   6.9119325076329E+09
(PID.TID 0000.0001) %MON RAZ_max                      =   3.4354146294179E+10
(PID.TID 0000.0001) %MON RAZ_min                      =   1.1964183470077E+10
(PID.TID 0000.0001) %MON RAZ_mean                     =   2.3666928057229E+10
(PID.TID 0000.0001) %MON RAZ_sd                       =   6.9119325076329E+09
(PID.TID 0000.0001) %MON AngleCS_max                  =   1.0000000000000E+00
(PID.TID 0000.0001) %MON AngleCS_min                  =   1.0000000000000E+00
(PID.TID 0000.0001) %MON AngleCS_mean                 =   1.0000000000000E+00
(PID.TID 0000.0001) %MON AngleCS_sd                   =   0.0000000000000E+00
(PID.TID 0000.0001) %MON AngleSN_max                  =   0.0000000000000E+00
(PID.TID 0000.0001) %MON AngleSN_min                  =   0.0000000000000E+00
(PID.TID 0000.0001) %MON AngleSN_mean                 =   0.0000000000000E+00
(PID.TID 0000.0001) %MON AngleSN_sd                   =   0.0000000000000E+00
(PID.TID 0000.0001) 
(PID.TID 0000.0001) // =======================================================
(PID.TID 0000.0001) // Calendar configuration >>> START <<<
(PID.TID 0000.0001) // =======================================================
(PID.TID 0000.0001) 
(PID.TID 0000.0001) modelstart = /* Start time of the model integration [s] */
(PID.TID 0000.0001)                 0.000000000000000E+00
(PID.TID 0000.0001)     ;
(PID.TID 0000.0001) modelend  = /* End time of the model integration [s] */
(PID.TID 0000.0001)                 4.320000000000000E+04
(PID.TID 0000.0001)     ;
(PID.TID 0000.0001) modelStep = /* Time interval for a model forward step [s] */
(PID.TID 0000.0001)                 3.600000000000000E+03
(PID.TID 0000.0001)     ;
(PID.TID 0000.0001) usingGregorianCalendar= /* Calendar Type: Gregorian Calendar */
(PID.TID 0000.0001)                   T
(PID.TID 0000.0001)     ;
(PID.TID 0000.0001) usingJulianCalendar = /* Calendar Type: Julian Calendar */
(PID.TID 0000.0001)                   F
(PID.TID 0000.0001)     ;
(PID.TID 0000.0001) usingNoLeapYearCal  = /* Calendar Type: without Leap Year */
(PID.TID 0000.0001)                   F
(PID.TID 0000.0001)     ;
(PID.TID 0000.0001) usingModelCalendar  = /* Calendar Type: Model Calendar */
(PID.TID 0000.0001)                   F
(PID.TID 0000.0001)     ;
(PID.TID 0000.0001) modelStartDate YYYYMMDD = /* Model start date YYYY-MM-DD */
(PID.TID 0000.0001)                19790101
(PID.TID 0000.0001)     ;
(PID.TID 0000.0001)   modelStartDate HHMMSS = /* Model start date HH-MM-SS  */
(PID.TID 0000.0001)                       0
(PID.TID 0000.0001)     ;
(PID.TID 0000.0001) modelEndDate   YYYYMMDD = /* Model end date YYYY-MM-DD */
(PID.TID 0000.0001)                19790101
(PID.TID 0000.0001)     ;
(PID.TID 0000.0001)   modelEndDate   HHMMSS = /* Model end date HH-MM-SS  */
(PID.TID 0000.0001)                  120000
(PID.TID 0000.0001)     ;
(PID.TID 0000.0001) intyears = /* Number of calendar years affected by the integration */
(PID.TID 0000.0001)                       1
(PID.TID 0000.0001)     ;
(PID.TID 0000.0001) intmonths= /* Number of calendar months affected by the integration */
(PID.TID 0000.0001)                       1
(PID.TID 0000.0001)     ;
(PID.TID 0000.0001) intdays = /* Number of calendar days affected by the integration */
(PID.TID 0000.0001)                       1
(PID.TID 0000.0001)     ;
(PID.TID 0000.0001) modelIter0 = /* Base timestep number  */
(PID.TID 0000.0001)                       0
(PID.TID 0000.0001)     ;
(PID.TID 0000.0001) modelIterEnd = /* Final timestep number  */
(PID.TID 0000.0001)                      12
(PID.TID 0000.0001)     ;
(PID.TID 0000.0001) modelIntSteps= /* Number of model timesteps  */
(PID.TID 0000.0001)                      12
(PID.TID 0000.0001)     ;
(PID.TID 0000.0001) 
(PID.TID 0000.0001) // =======================================================
(PID.TID 0000.0001) // Calendar configuration  >>> END <<<
(PID.TID 0000.0001) // =======================================================
(PID.TID 0000.0001) 
(PID.TID 0000.0001) GAD_INIT_FIXED: GAD_OlMinSize=  2  0  1
(PID.TID 0000.0001) 
(PID.TID 0000.0001) // ===================================
(PID.TID 0000.0001) // GAD parameters :
(PID.TID 0000.0001) // ===================================
(PID.TID 0000.0001) tempAdvScheme =   /* Temp. Horiz.Advection scheme selector */
(PID.TID 0000.0001)                      30
(PID.TID 0000.0001)     ;
(PID.TID 0000.0001) tempVertAdvScheme =   /* Temp. Vert. Advection scheme selector */
(PID.TID 0000.0001)                      30
(PID.TID 0000.0001)     ;
(PID.TID 0000.0001) tempMultiDimAdvec =   /* use Muti-Dim Advec method for Temp */
(PID.TID 0000.0001)                   T
(PID.TID 0000.0001)     ;
(PID.TID 0000.0001) tempSOM_Advection = /* use 2nd Order Moment Advection for Temp */
(PID.TID 0000.0001)                   F
(PID.TID 0000.0001)     ;
(PID.TID 0000.0001) AdamsBashforthGt = /* apply Adams-Bashforth extrapolation on Gt */
(PID.TID 0000.0001)                   F
(PID.TID 0000.0001)     ;
(PID.TID 0000.0001) AdamsBashforth_T = /* apply Adams-Bashforth extrapolation on Temp */
(PID.TID 0000.0001)                   F
(PID.TID 0000.0001)     ;
(PID.TID 0000.0001) saltAdvScheme =   /* Salt. Horiz.advection scheme selector */
(PID.TID 0000.0001)                      30
(PID.TID 0000.0001)     ;
(PID.TID 0000.0001) saltVertAdvScheme =   /* Salt. Vert. Advection scheme selector */
(PID.TID 0000.0001)                      30
(PID.TID 0000.0001)     ;
(PID.TID 0000.0001) saltMultiDimAdvec =   /* use Muti-Dim Advec method for Salt */
(PID.TID 0000.0001)                   T
(PID.TID 0000.0001)     ;
(PID.TID 0000.0001) saltSOM_Advection = /* use 2nd Order Moment Advection for Salt */
(PID.TID 0000.0001)                   F
(PID.TID 0000.0001)     ;
(PID.TID 0000.0001) AdamsBashforthGs = /* apply Adams-Bashforth extrapolation on Gs */
(PID.TID 0000.0001)                   F
(PID.TID 0000.0001)     ;
(PID.TID 0000.0001) AdamsBashforth_S = /* apply Adams-Bashforth extrapolation on Salt */
(PID.TID 0000.0001)                   F
(PID.TID 0000.0001)     ;
(PID.TID 0000.0001) // ===================================
(PID.TID 0000.0001) 
(PID.TID 0000.0001) // =======================================================
(PID.TID 0000.0001) // External forcing (EXF) configuration >>> START <<<
(PID.TID 0000.0001) // =======================================================
(PID.TID 0000.0001) 
(PID.TID 0000.0001)  EXF general parameters:
(PID.TID 0000.0001) 
(PID.TID 0000.0001) exf_iprec = /* exf file precision */
(PID.TID 0000.0001)                      32
(PID.TID 0000.0001)     ;
(PID.TID 0000.0001) useExfYearlyFields = /* add extension _YEAR to input file names */
(PID.TID 0000.0001)                   F
(PID.TID 0000.0001)     ;
(PID.TID 0000.0001) twoDigitYear = /* use 2-digit year extension */
(PID.TID 0000.0001)                   F
(PID.TID 0000.0001)     ;
(PID.TID 0000.0001) useExfCheckRange = /* check for fields range */
(PID.TID 0000.0001)                   T
(PID.TID 0000.0001)     ;
(PID.TID 0000.0001) exf_debugLev = /* select EXF-debug printing level */
(PID.TID 0000.0001)                       1
(PID.TID 0000.0001)     ;
(PID.TID 0000.0001) exf_monFreq  = /* EXF monitor frequency [ s ] */
(PID.TID 0000.0001)                 1.000000000000000E+00
(PID.TID 0000.0001)     ;
(PID.TID 0000.0001) repeatPeriod = /* period for cycling forcing dataset [ s ] */
(PID.TID 0000.0001)                 3.162240000000000E+07
(PID.TID 0000.0001)     ;
(PID.TID 0000.0001) climTempFreeze= /* Minimum climatological temperature [deg.C] */
(PID.TID 0000.0001)                -1.900000000000000E+00
(PID.TID 0000.0001)     ;
(PID.TID 0000.0001) windStressMax = /* Maximum absolute windstress [ Pa ] */
(PID.TID 0000.0001)                 2.000000000000000E+00
(PID.TID 0000.0001)     ;
(PID.TID 0000.0001) stressIsOnCgrid = /* set u,v_stress on Arakawa C-grid */
(PID.TID 0000.0001)                   F
(PID.TID 0000.0001)     ;
(PID.TID 0000.0001) rotateStressOnAgrid = /* rotate u,v_stress on Arakawa A-grid */
(PID.TID 0000.0001)                   F
(PID.TID 0000.0001)     ;
(PID.TID 0000.0001) cen2kel = /* conversion of deg. Centigrade to Kelvin [K] */
(PID.TID 0000.0001)                 2.731500000000000E+02
(PID.TID 0000.0001)     ;
(PID.TID 0000.0001) gravity_mks= /* gravitational acceleration [m/s^2] */
(PID.TID 0000.0001)                 9.810000000000000E+00
(PID.TID 0000.0001)     ;
(PID.TID 0000.0001) atmrho =  /* mean atmospheric density [kg/m^3] */
(PID.TID 0000.0001)                 1.200000000000000E+00
(PID.TID 0000.0001)     ;
(PID.TID 0000.0001) atmcp =  /* mean atmospheric specific heat [J/kg/K] */
(PID.TID 0000.0001)                 1.005000000000000E+03
(PID.TID 0000.0001)     ;
(PID.TID 0000.0001) flamb =  /* latent heat of evaporation [J/kg] */
(PID.TID 0000.0001)                 2.500000000000000E+06
(PID.TID 0000.0001)     ;
(PID.TID 0000.0001) flami =  /* latent heat of pure-ice melting [J/kg] */
(PID.TID 0000.0001)                 3.340000000000000E+05
(PID.TID 0000.0001)     ;
(PID.TID 0000.0001) cvapor_fac = /* const. for Saturation calculation [?] */
(PID.TID 0000.0001)                 6.403800000000000E+05
(PID.TID 0000.0001)     ;
(PID.TID 0000.0001) cvapor_exp = /* const. for Saturation calculation [?] */
(PID.TID 0000.0001)                 5.107400000000000E+03
(PID.TID 0000.0001)     ;
(PID.TID 0000.0001) cvapor_fac_ice= /* const. for Saturation calculation [?] */
(PID.TID 0000.0001)                 1.163780000000000E+07
(PID.TID 0000.0001)     ;
(PID.TID 0000.0001) cvapor_exp_ice= /* const. for Saturation calculation [?] */
(PID.TID 0000.0001)                 5.897800000000000E+03
(PID.TID 0000.0001)     ;
(PID.TID 0000.0001) humid_fac = /* humidity coef. in virtual temp. [(kg/kg)^-1] */
(PID.TID 0000.0001)                 6.060000000000000E-01
(PID.TID 0000.0001)     ;
(PID.TID 0000.0001) gamma_blk = /* adiabatic lapse rate [?] */
(PID.TID 0000.0001)                 1.000000000000000E-02
(PID.TID 0000.0001)     ;
(PID.TID 0000.0001) saltsat = /* reduction of Qsat over salty water [-] */
(PID.TID 0000.0001)                 9.800000000000000E-01
(PID.TID 0000.0001)     ;
(PID.TID 0000.0001) noNegativeEvap = /* prevent negative Evaporation */
(PID.TID 0000.0001)                   F
(PID.TID 0000.0001)     ;
(PID.TID 0000.0001) sstExtrapol = /* extrapolation coeff from lev. 1 & 2 to surf [-] */
(PID.TID 0000.0001)                 0.000000000000000E+00
(PID.TID 0000.0001)     ;
(PID.TID 0000.0001) cDrag_1 = /* coef used in drag calculation [?] */
(PID.TID 0000.0001)                 2.700000000000000E-03
(PID.TID 0000.0001)     ;
(PID.TID 0000.0001) cDrag_2 = /* coef used in drag calculation [?] */
(PID.TID 0000.0001)                 1.420000000000000E-04
(PID.TID 0000.0001)     ;
(PID.TID 0000.0001) cDrag_3 = /* coef used in drag calculation [?] */
(PID.TID 0000.0001)                 7.640000000000000E-05
(PID.TID 0000.0001)     ;
(PID.TID 0000.0001) cStanton_1 = /* coef used in Stanton number calculation [?] */
(PID.TID 0000.0001)                 3.270000000000000E-02
(PID.TID 0000.0001)     ;
(PID.TID 0000.0001) cStanton_2 = /* coef used in Stanton number calculation [?] */
(PID.TID 0000.0001)                 1.800000000000000E-02
(PID.TID 0000.0001)     ;
(PID.TID 0000.0001) cDalton = /* coef used in Dalton number calculation [?] */
(PID.TID 0000.0001)                 3.460000000000000E-02
(PID.TID 0000.0001)     ;
(PID.TID 0000.0001) exf_scal_BulkCdn= /* Drag coefficient scaling factor [-] */
(PID.TID 0000.0001)                 1.000000000000000E+00
(PID.TID 0000.0001)     ;
(PID.TID 0000.0001) zolmin = /* minimum stability parameter [?] */
(PID.TID 0000.0001)                -1.000000000000000E+02
(PID.TID 0000.0001)     ;
(PID.TID 0000.0001) psim_fac = /* coef used in turbulent fluxes calculation [-] */
(PID.TID 0000.0001)                 5.000000000000000E+00
(PID.TID 0000.0001)     ;
(PID.TID 0000.0001) zref =  /* reference height [ m ] */
(PID.TID 0000.0001)                 1.000000000000000E+01
(PID.TID 0000.0001)     ;
(PID.TID 0000.0001) hu =  /* height of mean wind [ m ] */
(PID.TID 0000.0001)                 1.000000000000000E+01
(PID.TID 0000.0001)     ;
(PID.TID 0000.0001) ht =  /* height of mean temperature [ m ] */
(PID.TID 0000.0001)                 2.000000000000000E+00
(PID.TID 0000.0001)     ;
(PID.TID 0000.0001) hq =  /* height of mean spec.humidity [ m ] */
(PID.TID 0000.0001)                 2.000000000000000E+00
(PID.TID 0000.0001)     ;
(PID.TID 0000.0001) uMin = /* minimum wind speed [m/s] */
(PID.TID 0000.0001)                 5.000000000000000E-01
(PID.TID 0000.0001)     ;
(PID.TID 0000.0001) useStabilityFct_overIce= /* transfert Coeffs over sea-ice depend on stability */
(PID.TID 0000.0001)                   F
(PID.TID 0000.0001)     ;
(PID.TID 0000.0001) exf_iceCd = /* drag coefficient over sea-ice (fixed) [-] */
(PID.TID 0000.0001)                 1.630000000000000E-03
(PID.TID 0000.0001)     ;
(PID.TID 0000.0001) exf_iceCe = /* transfert coeff. over sea-ice, for Evap (fixed) [-] */
(PID.TID 0000.0001)                 1.630000000000000E-03
(PID.TID 0000.0001)     ;
(PID.TID 0000.0001) exf_iceCh = /* transfert coeff. over sea-ice, Sens.Heat.(fixed)[-] */
(PID.TID 0000.0001)                 1.630000000000000E-03
(PID.TID 0000.0001)     ;
(PID.TID 0000.0001) exf_albedo =  /* Sea-water albedo [-] */
(PID.TID 0000.0001)                 1.000000000000000E-01
(PID.TID 0000.0001)     ;
(PID.TID 0000.0001) useExfZenAlbedo = /* Sea-water albedo varies with zenith angle */
(PID.TID 0000.0001)                   F
(PID.TID 0000.0001)     ;
(PID.TID 0000.0001) select_ZenAlbedo = /* Sea-water albedo computation method */
(PID.TID 0000.0001)                       0
(PID.TID 0000.0001)     ;
(PID.TID 0000.0001) useExfZenIncoming = /* compute incoming solar radiation */
(PID.TID 0000.0001)                   F
(PID.TID 0000.0001)     ;
(PID.TID 0000.0001) ocean_emissivity = /* longwave ocean-surface emissivity [-] */
(PID.TID 0000.0001)                 9.700176366843034E-01
(PID.TID 0000.0001)     ;
(PID.TID 0000.0001) ice_emissivity = /* longwave seaice emissivity [-] */
(PID.TID 0000.0001)                 9.500000000000000E-01
(PID.TID 0000.0001)     ;
(PID.TID 0000.0001) snow_emissivity = /* longwave snow  emissivity [-] */
(PID.TID 0000.0001)                 9.500000000000000E-01
(PID.TID 0000.0001)     ;
(PID.TID 0000.0001) 
(PID.TID 0000.0001)  EXF main CPP flags:
(PID.TID 0000.0001) 
(PID.TID 0000.0001) // USE_EXF_INTERPOLATION:          NOT defined
(PID.TID 0000.0001) // ALLOW_ATM_TEMP:                     defined
(PID.TID 0000.0001) // ALLOW_ATM_WIND (useAtmWind):        defined
(PID.TID 0000.0001) // ALLOW_DOWNWARD_RADIATION:           defined
(PID.TID 0000.0001) // ALLOW_BULKFORMULAE:                 defined
(PID.TID 0000.0001) 
(PID.TID 0000.0001)    Zonal wind forcing starts at                   -1317600.
(PID.TID 0000.0001)    Zonal wind forcing period is                    2635200.
(PID.TID 0000.0001)    Zonal wind forcing repeat-cycle is             31622400.
(PID.TID 0000.0001)    Zonal wind forcing is read from file:
(PID.TID 0000.0001)    >> u10m.labsea1979 <<
(PID.TID 0000.0001) 
(PID.TID 0000.0001)    Meridional wind forcing starts at              -1317600.
(PID.TID 0000.0001)    Meridional wind forcing period is               2635200.
(PID.TID 0000.0001)    Meridional wind forcing repeat-cycle is        31622400.
(PID.TID 0000.0001)    Meridional wind forcing is read from file:
(PID.TID 0000.0001)    >> v10m.labsea1979 <<
(PID.TID 0000.0001) 
(PID.TID 0000.0001)    Atmospheric temperature starts at              -1317600.
(PID.TID 0000.0001)    Atmospheric temperature period is               2635200.
(PID.TID 0000.0001)    Atmospheric temperature repeat-cycle is        31622400.
(PID.TID 0000.0001)    Atmospheric temperature is read from file:
(PID.TID 0000.0001)    >> tair.labsea1979 <<
(PID.TID 0000.0001) 
(PID.TID 0000.0001)    Atmospheric specific humidity starts at        -1317600.
(PID.TID 0000.0001)    Atmospheric specific humidity period is         2635200.
(PID.TID 0000.0001)    Atmospheric specific humidity rep-cycle is     31622400.
(PID.TID 0000.0001)    Atmospheric specific humidity is read from file:
(PID.TID 0000.0001)    >> qa.labsea1979 <<
(PID.TID 0000.0001) 
(PID.TID 0000.0001) // ALLOW_READ_TURBFLUXES:          NOT defined
(PID.TID 0000.0001) // EXF_READ_EVAP:                  NOT defined
(PID.TID 0000.0001) 
(PID.TID 0000.0001)    Precipitation data starts at                   -1317600.
(PID.TID 0000.0001)    Precipitation data period is                    2635200.
(PID.TID 0000.0001)    Precipitation data repeat-cycle is             31622400.
(PID.TID 0000.0001)    Precipitation data is read from file:
(PID.TID 0000.0001)    >> prate.labsea1979 <<
(PID.TID 0000.0001) 
(PID.TID 0000.0001) // ALLOW_RUNOFF:                       defined
(PID.TID 0000.0001) // ALLOW_RUNOFTEMP:                NOT defined
(PID.TID 0000.0001) // ALLOW_SALTFLX:                  NOT defined
(PID.TID 0000.0001) 
(PID.TID 0000.0001)    Downward shortwave flux starts at              -1317600.
(PID.TID 0000.0001)    Downward shortwave flux period is               2635200.
(PID.TID 0000.0001)    Downward shortwave flux repeat-cycle is        31622400.
(PID.TID 0000.0001)    Downward shortwave flux is read from file:
(PID.TID 0000.0001)    >> fsh.labsea1979 <<
(PID.TID 0000.0001) 
(PID.TID 0000.0001)    Downward longwave flux starts at               -1317600.
(PID.TID 0000.0001)    Downward longwave flux period is                2635200.
(PID.TID 0000.0001)    Downward longwave flux repeat-cycle is         31622400.
(PID.TID 0000.0001)    Downward longwave flux is read from file:
(PID.TID 0000.0001)    >> flo.labsea1979 <<
(PID.TID 0000.0001) 
(PID.TID 0000.0001) // =======================================================
(PID.TID 0000.0001) // External forcing (EXF) climatology configuration :
(PID.TID 0000.0001) // =======================================================
(PID.TID 0000.0001) 
(PID.TID 0000.0001) // ALLOW_CLIMSST_RELAXATION:           defined
(PID.TID 0000.0001)    climsst relaxation is NOT used
(PID.TID 0000.0001) 
(PID.TID 0000.0001) // ALLOW_CLIMSSS_RELAXATION:           defined
(PID.TID 0000.0001)    Climatological SSS starts at                   -1317600.
(PID.TID 0000.0001)    Climatological SSS period is                    2635200.
(PID.TID 0000.0001)    Climatological SSS repeat-cycle is             31622400.
(PID.TID 0000.0001)    Climatological SSS is read from file:
(PID.TID 0000.0001)    >> SSS_monthly.labsea1979 <<
(PID.TID 0000.0001) 
(PID.TID 0000.0001) // =======================================================
(PID.TID 0000.0001) // External forcing (EXF) configuration  >>> END <<<
(PID.TID 0000.0001) // =======================================================
(PID.TID 0000.0001) 
(PID.TID 0000.0001)  OPEN_COPY_DATA_FILE: opening file data.err
(PID.TID 0000.0001) // =======================================================
(PID.TID 0000.0001) // Parameter file "data.err"
(PID.TID 0000.0001) // =======================================================
(PID.TID 0000.0001) > 0.25
(PID.TID 0000.0001) >    0.5201    0.2676
(PID.TID 0000.0001) >    0.5199    0.2224
(PID.TID 0000.0001) >    0.5201    0.1942
(PID.TID 0000.0001) >    0.5142    0.1751
(PID.TID 0000.0001) >    0.4917    0.1452
(PID.TID 0000.0001) >    0.4707    0.1223
(PID.TID 0000.0001) >    0.4324    0.1125
(PID.TID 0000.0001) >    0.3782    0.1078
(PID.TID 0000.0001) >    0.3103    0.0884
(PID.TID 0000.0001) >    0.2435    0.0785
(PID.TID 0000.0001) >    0.1994    0.0777
(PID.TID 0000.0001) >    0.1582    0.0702
(PID.TID 0000.0001) >    0.1144    0.0710
(PID.TID 0000.0001) >    0.0905    0.0599
(PID.TID 0000.0001) >    0.0659    0.0510
(PID.TID 0000.0001) >    0.0602    0.0408
(PID.TID 0000.0001) >    0.0508    0.0399
(PID.TID 0000.0001) >    0.0498    0.0314
(PID.TID 0000.0001) >    0.0501    0.0205
(PID.TID 0000.0001) >    0.0500    0.0199
(PID.TID 0000.0001) >    0.0500    0.0200
(PID.TID 0000.0001) >    0.0500    0.0200
(PID.TID 0000.0001) >    0.0500    0.0200
(PID.TID 0000.0001) 
(PID.TID 0000.0001) 
(PID.TID 0000.0001) // =======================================================
(PID.TID 0000.0001) // ECCO configuration >>> START <<<
(PID.TID 0000.0001) // =======================================================
(PID.TID 0000.0001) 
(PID.TID 0000.0001) ECCO version:              0.1.0
(PID.TID 0000.0001) 
(PID.TID 0000.0001) Packages used:
(PID.TID 0000.0001) Calendar version:          0.1.4
(PID.TID 0000.0001) External Forcing version:  0.1.1
(PID.TID 0000.0001) Adjoint support version:   0.1.0
(PID.TID 0000.0001) Optimization version:      2.1.0
(PID.TID 0000.0001) 
(PID.TID 0000.0001) // ALLOW_ECCO_FORWARD_RUN:           NOT defined
(PID.TID 0000.0001) // ALLOW_ECCO_DIAGNOSTIC_RUN:        NOT defined
(PID.TID 0000.0001) // ALLOW_ADJOINT_RUN:                NOT defined
(PID.TID 0000.0001) // ALLOW_GRADIENT_CHECK:             NOT defined
(PID.TID 0000.0001) // ALLOW_ECCO_OPTIMIZATION:              defined
(PID.TID 0000.0001) // ALLOW_NO_DYNAMICS:                NOT defined
(PID.TID 0000.0001) // ALLOW_YMDS_TREE:                  NOT defined
(PID.TID 0000.0001) // ALLOW_STEPPING_CALL:              NOT defined
(PID.TID 0000.0001) // ALLOW_NONDIMENSIONAL_CONTROL_IO:      defined
(PID.TID 0000.0001) // ALLOW_EGM96_ERROR_COV:            NOT defined
(PID.TID 0000.0001) // ALLOW_READ_EGM_DATA:              NOT defined
(PID.TID 0000.0001) // ALLOW_SCAT_COST_CONTRIBUTION:     NOT defined
(PID.TID 0000.0001) // ALLOW_HFLUX_COST_CONTRIBUTION:    NOT defined
(PID.TID 0000.0001) // ALLOW_SFLUX_COST_CONTRIBUTION:    NOT defined
(PID.TID 0000.0001) // ALLOW_USTRESS_COST_CONTRIBUTION:  NOT defined
(PID.TID 0000.0001) // ALLOW_VSTRESS_COST_CONTRIBUTION:  NOT defined
(PID.TID 0000.0001) // ALLOW_SIGMAR_COST_CONTRIBUTION:   NOT defined
(PID.TID 0000.0001) // ALLOW_THETA_COST_CONTRIBUTION:        defined
(PID.TID 0000.0001) // ALLOW_SST_COST_CONTRIBUTION:          defined
(PID.TID 0000.0001) // ALLOW_SALT_COST_CONTRIBUTION:         defined
(PID.TID 0000.0001) // ALLOW_SSH_COST_CONTRIBUTION:          defined
(PID.TID 0000.0001) // APPLY_HFLUX_COST_CONTRIBUTION:    NOT defined
(PID.TID 0000.0001) // APPLY_SFLUX_COST_CONTRIBUTION:    NOT defined
(PID.TID 0000.0001) // APPLY_USTRESS_COST_CONTRIBUTION:  NOT defined
(PID.TID 0000.0001) // APPLY_VSTRESS_COST_CONTRIBUTION:  NOT defined
(PID.TID 0000.0001) // APPLY_THETA_COST_CONTRIBUTION:    NOT defined
(PID.TID 0000.0001) // APPLY_SALT_COST_CONTRIBUTION:     NOT defined
(PID.TID 0000.0001) // APPLY_SST_COST_CONTRIBUTION:      NOT defined
(PID.TID 0000.0001) // APPLY_SSH_COST_CONTRIBUTION:      NOT defined
(PID.TID 0000.0001) // ALLOW_SPH_PROJECTION:             NOT defined
(PID.TID 0000.0001) // ALLOW_THETA0_CONTROL:                 defined
(PID.TID 0000.0001) // ALLOW_SALT0_CONTROL:                  defined
(PID.TID 0000.0001) // ALLOW_ETAN0_CONTROL:              NOT defined
(PID.TID 0000.0001) // ALLOW_UVEL0_CONTROL:              NOT defined
(PID.TID 0000.0001) // ALLOW_VVEL0_CONTROL:              NOT defined
(PID.TID 0000.0001) // ALLOW_HFLUX_CONTROL:              NOT defined
(PID.TID 0000.0001) // ALLOW_SFLUX_CONTROL:              NOT defined
(PID.TID 0000.0001) // ALLOW_USTRESS_CONTROL:            NOT defined
(PID.TID 0000.0001) // ALLOW_VSTRESS_CONTROL:            NOT defined
(PID.TID 0000.0001) // ALLOW_SWFLUX_CONTROL:             NOT defined
(PID.TID 0000.0001) // ALLOW_SWDOWN_CONTROL:                 defined
(PID.TID 0000.0001) // ALLOW_ATEMP_CONTROL:                  defined
(PID.TID 0000.0001) // ALLOW_AQH_CONTROL:                    defined
(PID.TID 0000.0001) // ALLOW_UWIND_CONTROL:                  defined
(PID.TID 0000.0001) // ALLOW_VWIND_CONTROL:                  defined
(PID.TID 0000.0001) // ALLOW_PRECIP_CONTROL:                 defined
(PID.TID 0000.0001) // ALLOW_AUTODIFF_TAMC:                  defined
(PID.TID 0000.0001) // ALLOW_TAMC_CHECKPOINTING:             defined
(PID.TID 0000.0001) 
(PID.TID 0000.0001)  Generation of adjoint code for the ECCO setup is enabled
(PID.TID 0000.0001) 
(PID.TID 0000.0001) // =======================================================
(PID.TID 0000.0001) // ECCO configuration  >>> END <<<
(PID.TID 0000.0001) // =======================================================
(PID.TID 0000.0001) 
(PID.TID 0000.0001) 
(PID.TID 0000.0001) // =======================================================
(PID.TID 0000.0001) // ECCO cost function configuration  >>> START <<<
(PID.TID 0000.0001) // =======================================================
(PID.TID 0000.0001) 
(PID.TID 0000.0001)   Multipliers for the indivdual cost function contributions:
(PID.TID 0000.0001) 
(PID.TID 0000.0001)   Net heat flux:                 0.000E+00
(PID.TID 0000.0001)   Salt flux:                     0.000E+00
(PID.TID 0000.0001)   Zonal wind stress:             0.000E+00
(PID.TID 0000.0001)   Meridional wind stress:        0.000E+00
(PID.TID 0000.0001)   Mean sea surface height:       0.100E+01
(PID.TID 0000.0001)   Sea surface height anomalies:  0.100E+01
(PID.TID 0000.0001)   Temperature Lev.:              0.100E+01
(PID.TID 0000.0001)   Salinity Lev.:                 0.100E+01
(PID.TID 0000.0001)   Temperature ini.:              0.000E+00
(PID.TID 0000.0001)   Salinity ini.:                 0.000E+00
(PID.TID 0000.0001)   Sea level ini.:                0.000E+00
(PID.TID 0000.0001)   zonal velocity ini.:           0.000E+00
(PID.TID 0000.0001)   merid velocity ini.:           0.000E+00
(PID.TID 0000.0001)   TMI Sea surface temperature:   0.000E+00
(PID.TID 0000.0001)   Sea surface temperature:       0.100E+01
(PID.TID 0000.0001)   Sea surface salinity:         0.000E+00
(PID.TID 0000.0001)   CTD temperature:               0.000E+00
(PID.TID 0000.0001)   CTD salinity:                  0.000E+00
(PID.TID 0000.0001)   CTD clim temperature:          0.000E+00
(PID.TID 0000.0001)   CTD clim salinity:             0.000E+00
(PID.TID 0000.0001)   XBT Temperature:               0.000E+00
(PID.TID 0000.0001)   ARGO Temperature:               0.000E+00
(PID.TID 0000.0001)   ARGO Salt:                      0.000E+00
(PID.TID 0000.0001)   drifter velocities:            0.000E+00
(PID.TID 0000.0001)   drift between last and 1st year: 0.000E+00
(PID.TID 0000.0001)   drift between last and 1st year: 0.000E+00
(PID.TID 0000.0001)   Ageostrophic bdy flow:         0.000E+00
(PID.TID 0000.0001)   OB North:                      0.000E+00
(PID.TID 0000.0001)   OB South:                      0.000E+00
(PID.TID 0000.0001)   OB West:                       0.000E+00
(PID.TID 0000.0001)   OB East:                       0.000E+00
(PID.TID 0000.0001) 
(PID.TID 0000.0001) 
(PID.TID 0000.0001)   Temperature data are read from: labsea_Lev.ptmp
(PID.TID 0000.0001)   Salinity data are read from:    labsea_Lev.salt
(PID.TID 0000.0001)   using_cost_altim[T=mdt,F=no]:       T
(PID.TID 0000.0001)   MDT is read from:               labsea_TP_mean
(PID.TID 0000.0001)   MDT startdate are:            19930101       0
(PID.TID 0000.0001)   MDT enddate are:              20041231       0
(PID.TID 0000.0001) ctrl-wet 1:    nvarlength =         7320
(PID.TID 0000.0001) ctrl-wet 2: surface wet C =           14
(PID.TID 0000.0001) ctrl-wet 3: surface wet W =            8
(PID.TID 0000.0001) ctrl-wet 4: surface wet S =            6
(PID.TID 0000.0001) ctrl-wet 4a:surface wet V =            0
(PID.TID 0000.0001) ctrl-wet 5: 3D wet points =          106
(PID.TID 0000.0001) ctrl-wet 6: no recs for i =     1           1
(PID.TID 0000.0001) ctrl-wet 6: no recs for i =     2           1
(PID.TID 0000.0001) ctrl-wet 6: no recs for i =     3           0
(PID.TID 0000.0001) ctrl-wet 6: no recs for i =     4           0
(PID.TID 0000.0001) ctrl-wet 6: no recs for i =     5           0
(PID.TID 0000.0001) ctrl-wet 6: no recs for i =     6           0
(PID.TID 0000.0001) ctrl-wet 6: no recs for i =     7           2
(PID.TID 0000.0001) ctrl-wet 6: no recs for i =     8           2
(PID.TID 0000.0001) ctrl-wet 6: no recs for i =     9           2
(PID.TID 0000.0001) ctrl-wet 6: no recs for i =    10           2
(PID.TID 0000.0001) ctrl-wet 6: no recs for i =    11           0
(PID.TID 0000.0001) ctrl-wet 6: no recs for i =    12           0
(PID.TID 0000.0001) ctrl-wet 6: no recs for i =    13           0
(PID.TID 0000.0001) ctrl-wet 6: no recs for i =    14           0
(PID.TID 0000.0001) ctrl-wet 6: no recs for i =    15           0
(PID.TID 0000.0001) ctrl-wet 6: no recs for i =    16           0
(PID.TID 0000.0001) ctrl-wet 6: no recs for i =    17           0
(PID.TID 0000.0001) ctrl-wet 6: no recs for i =    18           2
(PID.TID 0000.0001) ctrl-wet 6: no recs for i =    19           2
(PID.TID 0000.0001) ctrl-wet 6: no recs for i =    20           0
(PID.TID 0000.0001) ctrl-wet 6: no recs for i =    21           0
(PID.TID 0000.0001) ctrl-wet 6: no recs for i =    22           0
(PID.TID 0000.0001) ctrl-wet 6: no recs for i =    23           0
(PID.TID 0000.0001) ctrl-wet 6: no recs for i =    24           0
(PID.TID 0000.0001) ctrl-wet 6: no recs for i =    25           0
(PID.TID 0000.0001) ctrl-wet 6: no recs for i =    26           0
(PID.TID 0000.0001) ctrl-wet 6: no recs for i =    27           0
(PID.TID 0000.0001) ctrl-wet 6: no recs for i =    28           0
(PID.TID 0000.0001) ctrl-wet 6: no recs for i =    29           0
[...]
(PID.TID 0000.0001) grdchk output (g):   1    -3.3827732259795E-03 -3.3827738278951E-03  1.7793553064305E-07
(PID.TID 0000.0001) 
(PID.TID 0000.0001) grdchk output (p):   2     7     8     1    1    1   0.000000000E+00 -1.000000000E-04
(PID.TID 0000.0001) grdchk output (c):   2  1.5246455416677E+01  1.5246455110181E+01  1.5246455723174E+01
(PID.TID 0000.0001) grdchk output (g):   2    -3.0649637050573E-03 -3.0649636335863E-03 -2.3318699637898E-08
(PID.TID 0000.0001) 
(PID.TID 0000.0001) grdchk output (p):   3     8     8     1    1    1   0.000000000E+00 -1.000000000E-04
(PID.TID 0000.0001) grdchk output (c):   3  1.5246455416677E+01  1.5246455060861E+01  1.5246455772494E+01
(PID.TID 0000.0001) grdchk output (g):   3    -3.5581641455451E-03 -3.5581643022223E-03  4.4033163670854E-08
(PID.TID 0000.0001) 
(PID.TID 0000.0001) grdchk output (p):   4     9     8     1    1    1   0.000000000E+00 -1.000000000E-04
(PID.TID 0000.0001) grdchk output (c):   4  1.5246455416677E+01  1.5246454980453E+01  1.5246455852902E+01
(PID.TID 0000.0001) grdchk output (g):   4    -4.3622419454437E-03 -4.3622463798190E-03  1.0165348209856E-06
(PID.TID 0000.0001) 
(PID.TID 0000.0001) grdchk output (p):   5    10     8     1    1    1   0.000000000E+00 -1.000000000E-04
(PID.TID 0000.0001) grdchk output (c):   5  1.5246455416677E+01  1.5246454958339E+01  1.5246455875016E+01
(PID.TID 0000.0001) grdchk output (g):   5    -4.5833860085054E-03 -4.5833923981500E-03  1.3940863207162E-06
(PID.TID 0000.0001) 
(PID.TID 0000.0001) grdchk  summary  :  RMS of    5 ratios =  7.7601075330247E-07
(PID.TID 0000.0001) 
(PID.TID 0000.0001) // =======================================================
(PID.TID 0000.0001) // Gradient check results  >>> END <<<
(PID.TID 0000.0001) // =======================================================
(PID.TID 0000.0001) 
(PID.TID 0000.0001)   Seconds in section "ALL                    [THE_MODEL_MAIN]":
(PID.TID 0000.0001)           User time:   54.707683464512229
(PID.TID 0000.0001)         System time:  0.29495499306358397
(PID.TID 0000.0001)     Wall clock time:   79.217814207077026
(PID.TID 0000.0001)          No. starts:           1
(PID.TID 0000.0001)           No. stops:           1
(PID.TID 0000.0001)   Seconds in section "INITIALISE_FIXED       [THE_MODEL_MAIN]":
(PID.TID 0000.0001)           User time:  0.44093300960958004
(PID.TID 0000.0001)         System time:  4.39930001739412546E-002
(PID.TID 0000.0001)     Wall clock time:   5.0582170486450195
(PID.TID 0000.0001)          No. starts:           1
(PID.TID 0000.0001)           No. stops:           1
(PID.TID 0000.0001)   Seconds in section "ADTHE_MAIN_LOOP       [ADJOINT RUN]":
(PID.TID 0000.0001)           User time:   9.2145987749099731
(PID.TID 0000.0001)         System time:  0.16097599640488625
(PID.TID 0000.0001)     Wall clock time:   28.922658920288086
(PID.TID 0000.0001)          No. starts:           1
(PID.TID 0000.0001)           No. stops:           1
(PID.TID 0000.0001)   Seconds in section "FORWARD_STEP        [MAIN_DO_LOOP]":
(PID.TID 0000.0001)           User time:   43.550378561019897
(PID.TID 0000.0001)         System time:  3.99919971823692322E-002
(PID.TID 0000.0001)     Wall clock time:   43.674371480941772
(PID.TID 0000.0001)          No. starts:         124
(PID.TID 0000.0001)           No. stops:         124
(PID.TID 0000.0001)   Seconds in section "LOAD_FIELDS_DRIVER  [FORWARD_STEP]":
(PID.TID 0000.0001)           User time:  0.26794797182083130
(PID.TID 0000.0001)         System time:  2.39950120449066162E-002
(PID.TID 0000.0001)     Wall clock time:  0.29322504997253418
(PID.TID 0000.0001)          No. starts:         124
(PID.TID 0000.0001)           No. stops:         124
(PID.TID 0000.0001)   Seconds in section "EXF_GETFORCING     [LOAD_FLDS_DRIVER]":
(PID.TID 0000.0001)           User time:  0.27794748544692993
(PID.TID 0000.0001)         System time:  2.39950120449066162E-002
(PID.TID 0000.0001)     Wall clock time:  0.30100321769714355
(PID.TID 0000.0001)          No. starts:         128
(PID.TID 0000.0001)           No. stops:         128
(PID.TID 0000.0001)   Seconds in section "I/O (WRITE)        [ADJOINT LOOP]":
(PID.TID 0000.0001)           User time:  0.49892282485961914
(PID.TID 0000.0001)         System time:  9.69839990139007568E-002
(PID.TID 0000.0001)     Wall clock time:   20.117700576782227
(PID.TID 0000.0001)          No. starts:         420
(PID.TID 0000.0001)           No. stops:         420
(PID.TID 0000.0001)   Seconds in section "EXTERNAL_FLDS_LOAD [LOAD_FLDS_DRIVER]":
(PID.TID 0000.0001)           User time:   0.0000000000000000
(PID.TID 0000.0001)         System time:   0.0000000000000000
(PID.TID 0000.0001)     Wall clock time:  1.17492675781250000E-003
(PID.TID 0000.0001)          No. starts:         128
(PID.TID 0000.0001)           No. stops:         128
(PID.TID 0000.0001)   Seconds in section "CTRL_MAP_FORCING  [FORWARD_STEP]":
(PID.TID 0000.0001)           User time:  5.99765777587890625E-003
(PID.TID 0000.0001)         System time:   0.0000000000000000
(PID.TID 0000.0001)     Wall clock time:  5.77330589294433594E-003
(PID.TID 0000.0001)          No. starts:         124
(PID.TID 0000.0001)           No. stops:         124
(PID.TID 0000.0001)   Seconds in section "DO_ATMOSPHERIC_PHYS [FORWARD_STEP]":
(PID.TID 0000.0001)           User time:  4.89990711212158203E-002
(PID.TID 0000.0001)         System time:   0.0000000000000000
(PID.TID 0000.0001)     Wall clock time:  4.20777797698974609E-002
(PID.TID 0000.0001)          No. starts:         124
(PID.TID 0000.0001)           No. stops:         124
(PID.TID 0000.0001)   Seconds in section "DO_OCEANIC_PHYS     [FORWARD_STEP]":
(PID.TID 0000.0001)           User time:   15.340660870075226
(PID.TID 0000.0001)         System time:  5.99898397922515869E-003
(PID.TID 0000.0001)     Wall clock time:   15.378215789794922
(PID.TID 0000.0001)          No. starts:         124
(PID.TID 0000.0001)           No. stops:         124
(PID.TID 0000.0001)   Seconds in section "KPP_CALC [DO_OCEANIC_PHYS]":
(PID.TID 0000.0001)           User time:   10.507440447807312
(PID.TID 0000.0001)         System time:  3.99896502494812012E-003
(PID.TID 0000.0001)     Wall clock time:   10.524872064590454
(PID.TID 0000.0001)          No. starts:         512
(PID.TID 0000.0001)           No. stops:         512
(PID.TID 0000.0001)   Seconds in section "DYNAMICS            [FORWARD_STEP]":
(PID.TID 0000.0001)           User time:   11.329276680946350
(PID.TID 0000.0001)         System time:  1.99999660253524780E-003
(PID.TID 0000.0001)     Wall clock time:   11.357698440551758
(PID.TID 0000.0001)          No. starts:         124
(PID.TID 0000.0001)           No. stops:         124
(PID.TID 0000.0001)   Seconds in section "SOLVE_FOR_PRESSURE  [FORWARD_STEP]":
(PID.TID 0000.0001)           User time:   1.2568042278289795
(PID.TID 0000.0001)         System time:   0.0000000000000000
(PID.TID 0000.0001)     Wall clock time:   1.2626922130584717
(PID.TID 0000.0001)          No. starts:         124
(PID.TID 0000.0001)           No. stops:         124
(PID.TID 0000.0001)   Seconds in section "MOM_CORRECTION_STEP [FORWARD_STEP]":
(PID.TID 0000.0001)           User time:  0.38296025991439819
(PID.TID 0000.0001)         System time:   0.0000000000000000
(PID.TID 0000.0001)     Wall clock time:  0.38456177711486816
(PID.TID 0000.0001)          No. starts:         124
(PID.TID 0000.0001)           No. stops:         124
(PID.TID 0000.0001)   Seconds in section "INTEGR_CONTINUITY   [FORWARD_STEP]":
(PID.TID 0000.0001)           User time:  0.20495688915252686
(PID.TID 0000.0001)         System time:   0.0000000000000000
(PID.TID 0000.0001)     Wall clock time:  0.20311522483825684
(PID.TID 0000.0001)          No. starts:         124
(PID.TID 0000.0001)           No. stops:         124
(PID.TID 0000.0001)   Seconds in section "BLOCKING_EXCHANGES  [FORWARD_STEP]":
(PID.TID 0000.0001)           User time:  0.72188937664031982
(PID.TID 0000.0001)         System time:   0.0000000000000000
(PID.TID 0000.0001)     Wall clock time:  0.72626996040344238
(PID.TID 0000.0001)          No. starts:         248
(PID.TID 0000.0001)           No. stops:         248
(PID.TID 0000.0001)   Seconds in section "THERMODYNAMICS      [FORWARD_STEP]":
(PID.TID 0000.0001)           User time:   12.887042224407196
(PID.TID 0000.0001)         System time:  7.99800455570220947E-003
(PID.TID 0000.0001)     Wall clock time:   12.918647050857544
(PID.TID 0000.0001)          No. starts:         124
(PID.TID 0000.0001)           No. stops:         124
(PID.TID 0000.0001)   Seconds in section "TRC_CORRECTION_STEP [FORWARD_STEP]":
(PID.TID 0000.0001)           User time:  9.99450683593750000E-004
(PID.TID 0000.0001)         System time:   0.0000000000000000
(PID.TID 0000.0001)     Wall clock time:  1.24001502990722656E-003
(PID.TID 0000.0001)          No. starts:         124
(PID.TID 0000.0001)           No. stops:         124
(PID.TID 0000.0001)   Seconds in section "MONITOR             [FORWARD_STEP]":
(PID.TID 0000.0001)           User time:  9.99450683593750000E-004
(PID.TID 0000.0001)         System time:   0.0000000000000000
(PID.TID 0000.0001)     Wall clock time:  1.23500823974609375E-003
(PID.TID 0000.0001)          No. starts:         124
(PID.TID 0000.0001)           No. stops:         124
(PID.TID 0000.0001)   Seconds in section "COST_TILE           [FORWARD_STEP]":
(PID.TID 0000.0001)           User time:   0.0000000000000000
(PID.TID 0000.0001)         System time:   0.0000000000000000
(PID.TID 0000.0001)     Wall clock time:  1.20782852172851563E-003
(PID.TID 0000.0001)          No. starts:         124
(PID.TID 0000.0001)           No. stops:         124
(PID.TID 0000.0001)   Seconds in section "DO_THE_MODEL_IO     [FORWARD_STEP]":
(PID.TID 0000.0001)           User time:  3.00025939941406250E-003
(PID.TID 0000.0001)         System time:   0.0000000000000000
(PID.TID 0000.0001)     Wall clock time:  1.70207023620605469E-003
(PID.TID 0000.0001)          No. starts:         124
(PID.TID 0000.0001)           No. stops:         124
(PID.TID 0000.0001)   Seconds in section "DO_WRITE_PICKUP     [FORWARD_STEP]":
(PID.TID 0000.0001)           User time:  9.99450683593750000E-004
(PID.TID 0000.0001)         System time:   0.0000000000000000
(PID.TID 0000.0001)     Wall clock time:  1.39284133911132813E-003
(PID.TID 0000.0001)          No. starts:         124
(PID.TID 0000.0001)           No. stops:         124
(PID.TID 0000.0001)   Seconds in section "CTRL_PACK           [THE_MODEL_MAIN]":
(PID.TID 0000.0001)           User time:  2.49967575073242188E-002
(PID.TID 0000.0001)         System time:  3.99900972843170166E-003
(PID.TID 0000.0001)     Wall clock time:  2.84240245819091797E-002
(PID.TID 0000.0001)          No. starts:           1
(PID.TID 0000.0001)           No. stops:           1
(PID.TID 0000.0001)   Seconds in section "CTRL_PACK     [THE_MODEL_MAIN]":
(PID.TID 0000.0001)           User time:  2.39963531494140625E-002
(PID.TID 0000.0001)         System time:  2.99999117851257324E-003
(PID.TID 0000.0001)     Wall clock time:  2.76079177856445313E-002
(PID.TID 0000.0001)          No. starts:           1
(PID.TID 0000.0001)           No. stops:           1
(PID.TID 0000.0001)   Seconds in section "GRDCHK_MAIN         [THE_MODEL_MAIN]":
(PID.TID 0000.0001)           User time:   45.001159667968750
(PID.TID 0000.0001)         System time:  8.29869955778121948E-002
(PID.TID 0000.0001)     Wall clock time:   45.178856849670410
(PID.TID 0000.0001)          No. starts:           1
(PID.TID 0000.0001)           No. stops:           1
(PID.TID 0000.0001)   Seconds in section "INITIALISE_VARIA    [THE_MAIN_LOOP]":
(PID.TID 0000.0001)           User time:  0.40593814849853516
(PID.TID 0000.0001)         System time:  4.99998033046722412E-003
(PID.TID 0000.0001)     Wall clock time:  0.41248631477355957
(PID.TID 0000.0001)          No. starts:          10
(PID.TID 0000.0001)           No. stops:          10
(PID.TID 0000.0001)   Seconds in section "MAIN LOOP           [THE_MAIN_LOOP]":
(PID.TID 0000.0001)           User time:   44.585218429565430
(PID.TID 0000.0001)         System time:  7.29870200157165527E-002
(PID.TID 0000.0001)     Wall clock time:   44.751098871231079
(PID.TID 0000.0001)          No. starts:          10
(PID.TID 0000.0001)           No. stops:          10
(PID.TID 0000.0001)   Seconds in section "COST_AVERAGESFIELDS [MAIN_DO_LOOP]":
(PID.TID 0000.0001)           User time:  7.00063705444335938E-002
(PID.TID 0000.0001)         System time:   0.0000000000000000
(PID.TID 0000.0001)     Wall clock time:  7.62007236480712891E-002
(PID.TID 0000.0001)          No. starts:         120
(PID.TID 0000.0001)           No. stops:         120
(PID.TID 0000.0001)   Seconds in section "MAIN_DO_LOOP        [THE_MAIN_LOOP]":
(PID.TID 0000.0001)           User time:   42.143591880798340
(PID.TID 0000.0001)         System time:  3.59929949045181274E-002
(PID.TID 0000.0001)     Wall clock time:   42.262681484222412
(PID.TID 0000.0001)          No. starts:         120
(PID.TID 0000.0001)           No. stops:         120
(PID.TID 0000.0001)   Seconds in section "COST_AVERAGESFIELDS [THE_MAIN_LOOP]":
(PID.TID 0000.0001)           User time:  2.29930877685546875E-002
(PID.TID 0000.0001)         System time:  3.99999320507049561E-003
(PID.TID 0000.0001)     Wall clock time:  2.67837047576904297E-002
(PID.TID 0000.0001)          No. starts:          10
(PID.TID 0000.0001)           No. stops:          10
(PID.TID 0000.0001)   Seconds in section "ECCO_COST_DRIVER   [THE_MAIN_LOOP]":
(PID.TID 0000.0001)           User time:  0.35594367980957031
(PID.TID 0000.0001)         System time:  3.09940427541732788E-002
(PID.TID 0000.0001)     Wall clock time:  0.38837790489196777
(PID.TID 0000.0001)          No. starts:          10
(PID.TID 0000.0001)           No. stops:          10
(PID.TID 0000.0001)   Seconds in section "COST_FORCING       [ECCO SPIN-DOWN]":
(PID.TID 0000.0001)           User time:  4.29897308349609375E-002
(PID.TID 0000.0001)         System time:  1.69960260391235352E-002
(PID.TID 0000.0001)     Wall clock time:  6.03165626525878906E-002
(PID.TID 0000.0001)          No. starts:          10
(PID.TID 0000.0001)           No. stops:          10
(PID.TID 0000.0001)   Seconds in section "COST_SSH           [ECCO SPIN-DOWN]":
(PID.TID 0000.0001)           User time:  4.00352478027343750E-003
(PID.TID 0000.0001)         System time:  9.99987125396728516E-004
(PID.TID 0000.0001)     Wall clock time:  6.90984725952148438E-003
(PID.TID 0000.0001)          No. starts:          10
(PID.TID 0000.0001)           No. stops:          10
(PID.TID 0000.0001)   Seconds in section "COST_HYD           [ECCO SPIN-DOWN]":
(PID.TID 0000.0001)           User time:  0.30895042419433594
(PID.TID 0000.0001)         System time:  1.19990259408950806E-002
(PID.TID 0000.0001)     Wall clock time:  0.32015609741210938
(PID.TID 0000.0001)          No. starts:          10
(PID.TID 0000.0001)           No. stops:          10
(PID.TID 0000.0001)   Seconds in section "COST_INTERNAL_PARAMS  [ECCO SPIN-DOWN]":
(PID.TID 0000.0001)           User time:   0.0000000000000000
(PID.TID 0000.0001)         System time:   0.0000000000000000
(PID.TID 0000.0001)     Wall clock time:  1.16586685180664063E-004
(PID.TID 0000.0001)          No. starts:          10
(PID.TID 0000.0001)           No. stops:          10
(PID.TID 0000.0001)   Seconds in section "COST_GENCOST_ALL    [ECCO SPIN-DOWN]":
(PID.TID 0000.0001)           User time:   0.0000000000000000
(PID.TID 0000.0001)         System time:   0.0000000000000000
(PID.TID 0000.0001)     Wall clock time:  9.51290130615234375E-005
(PID.TID 0000.0001)          No. starts:          10
(PID.TID 0000.0001)           No. stops:          10
(PID.TID 0000.0001)   Seconds in section "CTRL_COST_DRIVER [ECCO SPIN-DOWN]":
(PID.TID 0000.0001)           User time:   0.0000000000000000
(PID.TID 0000.0001)         System time:   0.0000000000000000
(PID.TID 0000.0001)     Wall clock time:  9.51290130615234375E-005
(PID.TID 0000.0001)          No. starts:          10
(PID.TID 0000.0001)           No. stops:          10
(PID.TID 0000.0001)   Seconds in section "COST_FINAL         [ADJOINT SPIN-DOWN]":
(PID.TID 0000.0001)           User time:  7.00092315673828125E-003
(PID.TID 0000.0001)         System time:   0.0000000000000000
(PID.TID 0000.0001)     Wall clock time:  6.41012191772460938E-003
(PID.TID 0000.0001)          No. starts:          10
(PID.TID 0000.0001)           No. stops:          10
(PID.TID 0000.0001) // ======================================================
(PID.TID 0000.0001) // Tile <-> Tile communication statistics
(PID.TID 0000.0001) // ======================================================
(PID.TID 0000.0001) // o Tile number: 000001
(PID.TID 0000.0001) //         No. X exchanges =              0
(PID.TID 0000.0001) //            Max. X spins =              0
(PID.TID 0000.0001) //            Min. X spins =     1000000000
(PID.TID 0000.0001) //          Total. X spins =              0
(PID.TID 0000.0001) //            Avg. X spins =       0.00E+00
(PID.TID 0000.0001) //         No. Y exchanges =              0
(PID.TID 0000.0001) //            Max. Y spins =              0
(PID.TID 0000.0001) //            Min. Y spins =     1000000000
(PID.TID 0000.0001) //          Total. Y spins =              0
(PID.TID 0000.0001) //            Avg. Y spins =       0.00E+00
(PID.TID 0000.0001) // o Tile number: 000002
(PID.TID 0000.0001) //         No. X exchanges =              0
(PID.TID 0000.0001) //            Max. X spins =              0
(PID.TID 0000.0001) //            Min. X spins =     1000000000
(PID.TID 0000.0001) //          Total. X spins =              0
(PID.TID 0000.0001) //            Avg. X spins =       0.00E+00
(PID.TID 0000.0001) //         No. Y exchanges =              0
(PID.TID 0000.0001) //            Max. Y spins =              0
(PID.TID 0000.0001) //            Min. Y spins =     1000000000
(PID.TID 0000.0001) //          Total. Y spins =              0
(PID.TID 0000.0001) //            Avg. Y spins =       0.00E+00
(PID.TID 0000.0001) // o Tile number: 000003
(PID.TID 0000.0001) //         No. X exchanges =              0
(PID.TID 0000.0001) //            Max. X spins =              0
(PID.TID 0000.0001) //            Min. X spins =     1000000000
(PID.TID 0000.0001) //          Total. X spins =              0
(PID.TID 0000.0001) //            Avg. X spins =       0.00E+00
(PID.TID 0000.0001) //         No. Y exchanges =              0
(PID.TID 0000.0001) //            Max. Y spins =              0
(PID.TID 0000.0001) //            Min. Y spins =     1000000000
(PID.TID 0000.0001) //          Total. Y spins =              0
(PID.TID 0000.0001) //            Avg. Y spins =       0.00E+00
(PID.TID 0000.0001) // o Tile number: 000004
(PID.TID 0000.0001) //         No. X exchanges =              0
(PID.TID 0000.0001) //            Max. X spins =              0
(PID.TID 0000.0001) //            Min. X spins =     1000000000
(PID.TID 0000.0001) //          Total. X spins =              0
(PID.TID 0000.0001) //            Avg. X spins =       0.00E+00
(PID.TID 0000.0001) //         No. Y exchanges =              0
(PID.TID 0000.0001) //            Max. Y spins =              0
(PID.TID 0000.0001) //            Min. Y spins =     1000000000
(PID.TID 0000.0001) //          Total. Y spins =              0
(PID.TID 0000.0001) //            Avg. Y spins =       0.00E+00
(PID.TID 0000.0001) // o Thread number: 000001
(PID.TID 0000.0001) //            No. barriers =          44124
(PID.TID 0000.0001) //      Max. barrier spins =              1
(PID.TID 0000.0001) //      Min. barrier spins =              1
(PID.TID 0000.0001) //     Total barrier spins =          44124
(PID.TID 0000.0001) //      Avg. barrier spins =       1.00E+00
PROGRAM MAIN: Execution ended Normally
