(PID.TID 0000.0001) 
(PID.TID 0000.0001) // ======================================================
(PID.TID 0000.0001) //                      MITgcm UV
(PID.TID 0000.0001) //                      =========
(PID.TID 0000.0001) // ======================================================
(PID.TID 0000.0001) // execution environment starting up...
(PID.TID 0000.0001) 
(PID.TID 0000.0001) // MITgcmUV version:  checkpoint62d
(PID.TID 0000.0001) // Build user:        heimbach
(PID.TID 0000.0001) // Build host:        faulks.csail.mit.edu
(PID.TID 0000.0001) // Build date:        Mon Mar 29 08:37:53 EDT 2010
(PID.TID 0000.0001) 
(PID.TID 0000.0001) // =======================================================
(PID.TID 0000.0001) // Execution Environment parameter file "eedata"
(PID.TID 0000.0001) // =======================================================
(PID.TID 0000.0001) ># Example "eedata" file
(PID.TID 0000.0001) ># Lines beginning "#" are comments
(PID.TID 0000.0001) ># nTx - No. threads per process in X
(PID.TID 0000.0001) ># nTy - No. threads per process in Y
(PID.TID 0000.0001) > &EEPARMS
(PID.TID 0000.0001) > nTx=1,
(PID.TID 0000.0001) > nTy=1,
(PID.TID 0000.0001) > &
(PID.TID 0000.0001) ># Note: Some systems use & as the
(PID.TID 0000.0001) ># namelist terminator. Other systems
(PID.TID 0000.0001) ># use a / character (as shown here).
(PID.TID 0000.0001) 
(PID.TID 0000.0001) // =======================================================
(PID.TID 0000.0001) // Computational Grid Specification ( see files "SIZE.h" )
(PID.TID 0000.0001) //                                  ( and "eedata"       )
(PID.TID 0000.0001) // =======================================================
(PID.TID 0000.0001)      nPx =    1 ; /* No. processes in X */
(PID.TID 0000.0001)      nPy =    1 ; /* No. processes in Y */
(PID.TID 0000.0001)      nSx =    2 ; /* No. tiles in X per process */
(PID.TID 0000.0001)      nSy =    2 ; /* No. tiles in Y per process */
(PID.TID 0000.0001)      sNx =   10 ; /* Tile size in X */
(PID.TID 0000.0001)      sNy =    8 ; /* Tile size in Y */
(PID.TID 0000.0001)      OLx =    4 ; /* Tile overlap distance in X */
(PID.TID 0000.0001)      OLy =    4 ; /* Tile overlap distance in Y */
(PID.TID 0000.0001)      nTx =    1 ; /* No. threads in X per process */
(PID.TID 0000.0001)      nTy =    1 ; /* No. threads in Y per process */
(PID.TID 0000.0001)       Nr =   23 ; /* No. levels in the vertical   */
(PID.TID 0000.0001)       Nx =   20 ; /* Total domain size in X ( = nPx*nSx*sNx ) */
(PID.TID 0000.0001)       Ny =   16 ; /* Total domain size in Y ( = nPy*nSy*sNy ) */
(PID.TID 0000.0001)   nTiles =    4 ; /* Total no. tiles per process ( = nSx*nSy ) */
(PID.TID 0000.0001)   nProcs =    1 ; /* Total no. processes ( = nPx*nPy ) */
(PID.TID 0000.0001) nThreads =    1 ; /* Total no. threads per process ( = nTx*nTy ) */
(PID.TID 0000.0001) usingMPI =    F ; /* Flag used to control whether MPI is in use */
(PID.TID 0000.0001)                   /*  note: To execute a program with MPI calls */
(PID.TID 0000.0001)                   /*  it must be launched appropriately e.g     */
(PID.TID 0000.0001)                   /*  "mpirun -np 64 ......"                    */
(PID.TID 0000.0001) useCoupler=    F ;/* Flag used to control communications with   */
(PID.TID 0000.0001)                   /*  other model components, through a coupler */
(PID.TID 0000.0001) printMapIncludesZeros=    F ; /* print zeros in Std.Output maps */
(PID.TID 0000.0001) maxLengthPrt1D=   65 /* maxLength of 1D array printed to StdOut */
(PID.TID 0000.0001) 
(PID.TID 0000.0001) // ======================================================
(PID.TID 0000.0001) // Mapping of tiles to threads
(PID.TID 0000.0001) // ======================================================
(PID.TID 0000.0001) // -o- Thread   1, tiles (   1:   2,   1:   2)
(PID.TID 0000.0001) 
(PID.TID 0000.0001) // ======================================================
(PID.TID 0000.0001) // Tile <-> Tile connectvity table
(PID.TID 0000.0001) // ======================================================
(PID.TID 0000.0001) // Tile number: 000001 (process no. = 000001)
(PID.TID 0000.0001) //        WEST: Tile = 000002, Process = 000001, Comm = put
(PID.TID 0000.0001) //                bi = 000002, bj = 000001
(PID.TID 0000.0001) //        EAST: Tile = 000002, Process = 000001, Comm = put
(PID.TID 0000.0001) //                bi = 000002, bj = 000001
(PID.TID 0000.0001) //       SOUTH: Tile = 000003, Process = 000001, Comm = put
(PID.TID 0000.0001) //                bi = 000001, bj = 000002
(PID.TID 0000.0001) //       NORTH: Tile = 000003, Process = 000001, Comm = put
(PID.TID 0000.0001) //                bi = 000001, bj = 000002
(PID.TID 0000.0001) // Tile number: 000002 (process no. = 000001)
(PID.TID 0000.0001) //        WEST: Tile = 000001, Process = 000001, Comm = put
(PID.TID 0000.0001) //                bi = 000001, bj = 000001
(PID.TID 0000.0001) //        EAST: Tile = 000001, Process = 000001, Comm = put
(PID.TID 0000.0001) //                bi = 000001, bj = 000001
(PID.TID 0000.0001) //       SOUTH: Tile = 000004, Process = 000001, Comm = put
(PID.TID 0000.0001) //                bi = 000002, bj = 000002
(PID.TID 0000.0001) //       NORTH: Tile = 000004, Process = 000001, Comm = put
(PID.TID 0000.0001) //                bi = 000002, bj = 000002
(PID.TID 0000.0001) // Tile number: 000003 (process no. = 000001)
(PID.TID 0000.0001) //        WEST: Tile = 000004, Process = 000001, Comm = put
(PID.TID 0000.0001) //                bi = 000002, bj = 000002
(PID.TID 0000.0001) //        EAST: Tile = 000004, Process = 000001, Comm = put
(PID.TID 0000.0001) //                bi = 000002, bj = 000002
(PID.TID 0000.0001) //       SOUTH: Tile = 000001, Process = 000001, Comm = put
(PID.TID 0000.0001) //                bi = 000001, bj = 000001
(PID.TID 0000.0001) //       NORTH: Tile = 000001, Process = 000001, Comm = put
(PID.TID 0000.0001) //                bi = 000001, bj = 000001
(PID.TID 0000.0001) // Tile number: 000004 (process no. = 000001)
(PID.TID 0000.0001) //        WEST: Tile = 000003, Process = 000001, Comm = put
(PID.TID 0000.0001) //                bi = 000001, bj = 000002
(PID.TID 0000.0001) //        EAST: Tile = 000003, Process = 000001, Comm = put
(PID.TID 0000.0001) //                bi = 000001, bj = 000002
(PID.TID 0000.0001) //       SOUTH: Tile = 000002, Process = 000001, Comm = put
(PID.TID 0000.0001) //                bi = 000002, bj = 000001
(PID.TID 0000.0001) //       NORTH: Tile = 000002, Process = 000001, Comm = put
(PID.TID 0000.0001) //                bi = 000002, bj = 000001
(PID.TID 0000.0001) 
(PID.TID 0000.0001) DEBUG_MSG: ENTERED S/R THE_MODEL_MAIN
(PID.TID 0000.0001) DEBUG_MSG: CALLING S/R INITIALISE_FIXED
(PID.TID 0000.0001) // =======================================================
(PID.TID 0000.0001) // Model parameter file "data"
(PID.TID 0000.0001) // =======================================================
(PID.TID 0000.0001) ># ====================
(PID.TID 0000.0001) ># | Model parameters |
(PID.TID 0000.0001) ># ====================
(PID.TID 0000.0001) >#
(PID.TID 0000.0001) ># Continuous equation parameters
(PID.TID 0000.0001) >#
(PID.TID 0000.0001) >#   tRef            - Reference vertical potential temperature          (deg C)
(PID.TID 0000.0001) >#   sRef            - Reference vertical salinity                         (PSU)
(PID.TID 0000.0001) >#   viscAh          - Horizontal eddy viscosity coefficient             (m^2/s)
(PID.TID 0000.0001) >#   viscAz          - Vertical eddy viscosity coefficient               (m^2/s)
(PID.TID 0000.0001) >#   diffKhT         - Horizontal temperature diffusivity                (m^2/s)
(PID.TID 0000.0001) >#   diffKzT         - Vertical temperature diffusivity                  (m^2/s)
(PID.TID 0000.0001) >#   diffKhS         - Horizontal salt diffusivity                       (m^2/s)
(PID.TID 0000.0001) >#   diffKzS         - Vertical salt diffusivity                         (m^2/s)
(PID.TID 0000.0001) >#   f0              - Reference coriolis parameter,
(PID.TID 0000.0001) >#                     south edge of f on beta plane                       (1/s)
(PID.TID 0000.0001) >#   beta            - df/dy                                         (s^-1.m^-1)
(PID.TID 0000.0001) >#   tAlpha          - Linear EOS thermal expansion coefficient           (1/oC)
(PID.TID 0000.0001) >#   sBeta           - Linear EOS haline contraction coefficient         (1/ppt)
(PID.TID 0000.0001) >#   gravity         - Acceleration due to gravity                       (m/s^2)
(PID.TID 0000.0001) >#   gBaro           - Accel. due to gravity used in barotropic equation (m/s^2)
(PID.TID 0000.0001) >#   rigidLid        - Set to true to use rigid lid
(PID.TID 0000.0001) >#   implicitFreeSurface - Set to true to use implicit free surface
(PID.TID 0000.0001) >#   eosType         - Flag for linear or polynomial equation of state
(PID.TID 0000.0001) >#   momAdvection    - On/Off flag for momentum self transport
(PID.TID 0000.0001) >#   momViscosity    - On/Off flag for momentum mixing
(PID.TID 0000.0001) >#
(PID.TID 0000.0001) > &PARM01
(PID.TID 0000.0001) > tRef= 24.0 , 23.0 , 22.0 , 21.0 , 20.0 ,
(PID.TID 0000.0001) >       19.0 , 18.0 , 17.0 , 16.0 , 15.0 ,
(PID.TID 0000.0001) >       14.0 , 13.0 , 12.0 , 11.0 , 10.0 ,
(PID.TID 0000.0001) >        9.0 ,  8.0 ,  7.0 ,  6.0,   5.0 ,
(PID.TID 0000.0001) >        4.0 ,  3.0 ,  2.0 ,
(PID.TID 0000.0001) > sRef= 34.65, 34.75, 34.82, 34.87, 34.90,
(PID.TID 0000.0001) >       34.90, 34.86, 34.78, 34.69, 34.60,
(PID.TID 0000.0001) >       34.58, 34.62, 34.68, 34.72, 34.73,
(PID.TID 0000.0001) >       34.74, 34.73, 34.73, 34.72, 34.72,
(PID.TID 0000.0001) >       34.71, 34.70, 34.69,
(PID.TID 0000.0001) > no_slip_sides=.FALSE.,
(PID.TID 0000.0001) > no_slip_bottom=.TRUE.,
(PID.TID 0000.0001) > viscAz=1.93e-5,
(PID.TID 0000.0001) > viscAh=5.E4,
(PID.TID 0000.0001) > diffKhT=0.0,
(PID.TID 0000.0001) > diffKzT=1.46e-5,
(PID.TID 0000.0001) > diffKhS=0.0,
(PID.TID 0000.0001) > diffKzS=1.46e-5,
(PID.TID 0000.0001) > beta=1.E-11,
(PID.TID 0000.0001) > tAlpha=2.E-4,
(PID.TID 0000.0001) > sBeta =7.4E-4,
(PID.TID 0000.0001) > rigidLid=.FALSE.,
(PID.TID 0000.0001) > implicitFreeSurface=.TRUE.,
(PID.TID 0000.0001) > eosType='JMD95Z',
(PID.TID 0000.0001) > readBinaryPrec=32,
(PID.TID 0000.0001) > writeBinaryPrec=32,
(PID.TID 0000.0001) > saltStepping=.TRUE.,
(PID.TID 0000.0001) > tempStepping=.TRUE.,
(PID.TID 0000.0001) > momStepping=.TRUE.,
(PID.TID 0000.0001) > implicitDiffusion=.TRUE.,
(PID.TID 0000.0001) > implicitViscosity=.TRUE.,
(PID.TID 0000.0001) >#globalFiles=.TRUE.,
(PID.TID 0000.0001) >#- not safe to use globalFiles in multi-processors runs; set instead useSingleCpuIO
(PID.TID 0000.0001) > useSingleCpuIO=.FALSE.,
(PID.TID 0000.0001) > allowFreezing=.FALSE.,
(PID.TID 0000.0001) > HeatCapacity_Cp = 3986.D0
(PID.TID 0000.0001) > gravity         = 9.8156,
(PID.TID 0000.0001) > rhoNil          = 1027.D0
(PID.TID 0000.0001) > useCDscheme=.TRUE.,
(PID.TID 0000.0001) > inAdExact=.TRUE.,
(PID.TID 0000.0001) >#ph(
(PID.TID 0000.0001) > staggerTimeStep=.TRUE.,
(PID.TID 0000.0001) > multiDimAdvection=.TRUE.,
(PID.TID 0000.0001) > tempAdvScheme=30,
(PID.TID 0000.0001) > saltAdvScheme=30,
(PID.TID 0000.0001) >#ph)
(PID.TID 0000.0001) > &
(PID.TID 0000.0001) >
(PID.TID 0000.0001) ># Elliptic solver parameters
(PID.TID 0000.0001) >#
(PID.TID 0000.0001) >#   cg2dMaxIters       - Maximum number of 2d solver iterations
(PID.TID 0000.0001) >#   cg2dTargetResidual - Solver target residual
(PID.TID 0000.0001) >#
(PID.TID 0000.0001) > &PARM02
(PID.TID 0000.0001) > cg2dMaxIters=1000,
(PID.TID 0000.0001) > cg2dTargetResidual=1.D-13,
(PID.TID 0000.0001) > &
(PID.TID 0000.0001) >
(PID.TID 0000.0001) ># Time stepping parameters
(PID.TID 0000.0001) >#
(PID.TID 0000.0001) >#   startTime         - Integration starting time                (s)
(PID.TID 0000.0001) >#   endTime           - Integration ending time                  (s)
(PID.TID 0000.0001) >#   tauCD             - CD scheme coupling timescale             (s)
(PID.TID 0000.0001) >#   deltaTMom         - Timestep for momemtum equations          (s)
(PID.TID 0000.0001) >#   deltaTtracer      - Tracer timestep                          (s)
(PID.TID 0000.0001) >#   deltaTClock       - Timestep used as model "clock"           (s)
(PID.TID 0000.0001) >#   abEps             - Adams-Bashforth stabilising factor
(PID.TID 0000.0001) >#   pChkPtFreq        - Frequency of permanent check pointing    (s)
(PID.TID 0000.0001) >#   chkPtFreq         - Frequency of rolling check pointing      (s)
(PID.TID 0000.0001) >#   dumpFreq          - Frequency at which model state is stored (s)
(PID.TID 0000.0001) >#   tauThetaClimRelax - Relaxation to climatology time scale     (s)
(PID.TID 0000.0001) >#   tauSaltClimRelax  - Relaxation to climatology time scale     (s)
(PID.TID 0000.0001) >#
(PID.TID 0000.0001) > &PARM03
(PID.TID 0000.0001) > tauCD=172800.,
(PID.TID 0000.0001) > startTime=0.0,
(PID.TID 0000.0001) > nTimeSteps=4,
(PID.TID 0000.0001) > deltaTmom=3600.0,
(PID.TID 0000.0001) > deltaTtracer=3600.0,
(PID.TID 0000.0001) > deltaTClock =3600.0,
(PID.TID 0000.0001) > cAdjFreq=0.,
(PID.TID 0000.0001) > abEps=0.1,
(PID.TID 0000.0001) > pChkptFreq=36000.,
(PID.TID 0000.0001) > chkptFreq= 0.,
(PID.TID 0000.0001) > dumpFreq = 0.,
(PID.TID 0000.0001) > tavefreq = 36000.,
(PID.TID 0000.0001) > monitorFreq=1.,
(PID.TID 0000.0001) > adjMonitorFreq=1.,
(PID.TID 0000.0001) > adjDumpFreq=1.,
(PID.TID 0000.0001) >#forcing_In_AB = .FALSE.
(PID.TID 0000.0001) > tracForcingOutAB=1,
(PID.TID 0000.0001) > &
(PID.TID 0000.0001) >
(PID.TID 0000.0001) ># Gridding parameters
(PID.TID 0000.0001) >#
(PID.TID 0000.0001) >#   usingSphericalPolarGrid - On/Off flag for spherical polar coordinates
(PID.TID 0000.0001) >#   delX                    - Zonal grid spacing         (degrees)
(PID.TID 0000.0001) >#   delY                    - Meridional grid spacing    (degrees)
(PID.TID 0000.0001) >#   delZ                    - Vertical grid spacing      (m)
(PID.TID 0000.0001) >#   ygOrigin                - Southern boundary latitude (degrees)
(PID.TID 0000.0001) >#
(PID.TID 0000.0001) > &PARM04
(PID.TID 0000.0001) > usingSphericalPolarGrid=.TRUE.,
(PID.TID 0000.0001) > delX=20*2.E0,
(PID.TID 0000.0001) > delY=16*2.E0,
(PID.TID 0000.0001) > delZ= 10., 10., 15., 20., 20., 25., 35., 50., 75.,
(PID.TID 0000.0001) >       100., 150., 200., 275., 350., 415., 450.,
(PID.TID 0000.0001) >       500., 500., 500., 500., 500., 500., 500.
(PID.TID 0000.0001) > ygOrigin=46.,
(PID.TID 0000.0001) > xgOrigin=280.,
(PID.TID 0000.0001) > rSphere         = 6371.D3
(PID.TID 0000.0001) > &
(PID.TID 0000.0001) >
(PID.TID 0000.0001) ># Input datasets
(PID.TID 0000.0001) >#
(PID.TID 0000.0001) >#   bathyFile       - File containing bathymetry
(PID.TID 0000.0001) >#   hydrogThetaFile - File containing initial potential temperature data
(PID.TID 0000.0001) >#   hydrogSaltFile  - File containing initial salinity data
(PID.TID 0000.0001) >#   zonalWindFile   - File containing zonal wind data
(PID.TID 0000.0001) >#   meridWindFile   - File containing meridional wind data
(PID.TID 0000.0001) >#   thetaClimFile   - File containing theta climatology used for relaxation
(PID.TID 0000.0001) >#   saltClimFile    - File containing salt climatology used for relaxation
(PID.TID 0000.0001) >#
(PID.TID 0000.0001) > &PARM05
(PID.TID 0000.0001) > bathyFile       = 'bathy.labsea1979',
(PID.TID 0000.0001) > hydrogThetaFile = 'LevCli_temp.labsea1979',
(PID.TID 0000.0001) > hydrogSaltFile  = 'LevCli_salt.labsea1979',
(PID.TID 0000.0001) > &
(PID.TID 0000.0001) >
(PID.TID 0000.0001) 
(PID.TID 0000.0001) S/R INI_PARMS ; starts to read PARM01
(PID.TID 0000.0001) S/R INI_PARMS ; read PARM01 : OK
(PID.TID 0000.0001) S/R INI_PARMS ; starts to read PARM02
(PID.TID 0000.0001) S/R INI_PARMS ; read PARM02 : OK
(PID.TID 0000.0001) S/R INI_PARMS ; starts to read PARM03
(PID.TID 0000.0001) S/R INI_PARMS ; read PARM03 : OK
(PID.TID 0000.0001) S/R INI_PARMS ; starts to read PARM04
(PID.TID 0000.0001) S/R INI_PARMS ; read PARM04 : OK
(PID.TID 0000.0001) S/R INI_PARMS ; starts to read PARM05
(PID.TID 0000.0001) S/R INI_PARMS ; read PARM05 : OK
(PID.TID 0000.0001)  PACKAGES_BOOT: opening data.pkg
(PID.TID 0000.0001)  OPEN_COPY_DATA_FILE: opening file data.pkg
(PID.TID 0000.0001) // =======================================================
(PID.TID 0000.0001) // Parameter file "data.pkg"
(PID.TID 0000.0001) // =======================================================
(PID.TID 0000.0001) ># Packages
(PID.TID 0000.0001) > &PACKAGES
(PID.TID 0000.0001) >  useGMRedi = .TRUE.,
(PID.TID 0000.0001) >  useKPP    = .TRUE.,
(PID.TID 0000.0001) >  useEXF    = .TRUE.,
(PID.TID 0000.0001) >  useSEAICE = .TRUE.,
(PID.TID 0000.0001) >  useDOWN_SLOPE=.TRUE.,
(PID.TID 0000.0001) >  useDiagnostics = .FALSE.,
(PID.TID 0000.0001) >  useMNC    = .TRUE.,
(PID.TID 0000.0001) >  useECCO   = .TRUE.,
(PID.TID 0000.0001) >  useGrdchk = .TRUE.,
(PID.TID 0000.0001) > &
(PID.TID 0000.0001) 
(PID.TID 0000.0001)  PACKAGES_BOOT: finished reading data.pkg
(PID.TID 0000.0001)  MNC_READPARMS: opening file 'data.mnc'
(PID.TID 0000.0001)  OPEN_COPY_DATA_FILE: opening file data.mnc
(PID.TID 0000.0001) // =======================================================
(PID.TID 0000.0001) // Parameter file "data.mnc"
(PID.TID 0000.0001) // =======================================================
(PID.TID 0000.0001) ># Example "data.mnc" file
(PID.TID 0000.0001) ># Lines beginning "#" are comments
(PID.TID 0000.0001) > &MNC_01
(PID.TID 0000.0001) ># mnc_echo_gvtypes=.FALSE.,
(PID.TID 0000.0001) ># mnc_use_indir=.FALSE.,
(PID.TID 0000.0001) > mnc_use_outdir=.TRUE.,
(PID.TID 0000.0001) > mnc_outdir_str='mnc_test_',
(PID.TID 0000.0001) > mnc_outdir_date=.TRUE.,
(PID.TID 0000.0001) > monitor_mnc=.FALSE.,
(PID.TID 0000.0001) >#snapshot_mnc=.FALSE.,
(PID.TID 0000.0001) >#timeave_mnc=.FALSE.,
(PID.TID 0000.0001) > pickup_write_mnc=.FALSE.,
(PID.TID 0000.0001) > &
(PID.TID 0000.0001) ># Note: Some systems use & as the
(PID.TID 0000.0001) ># namelist terminator. Other systems
(PID.TID 0000.0001) ># use a / character (as shown here).
(PID.TID 0000.0001) 
(PID.TID 0000.0001)  MNC_READPARMS: finished reading data.mnc
(PID.TID 0000.0001) CAL_READPARMS: opening data.cal
(PID.TID 0000.0001)  OPEN_COPY_DATA_FILE: opening file data.cal
(PID.TID 0000.0001) // =======================================================
(PID.TID 0000.0001) // Parameter file "data.cal"
(PID.TID 0000.0001) // =======================================================
(PID.TID 0000.0001) >#
(PID.TID 0000.0001) ># *******************
(PID.TID 0000.0001) ># Calendar Parameters
(PID.TID 0000.0001) ># *******************
(PID.TID 0000.0001) > &CAL_NML
(PID.TID 0000.0001) > TheCalendar='gregorian',
(PID.TID 0000.0001) ># TheCalendar='model',
(PID.TID 0000.0001) > startDate_1=19790101,
(PID.TID 0000.0001) > startDate_2=000000,
(PID.TID 0000.0001) > &
(PID.TID 0000.0001) 
(PID.TID 0000.0001) CAL_READPARMS: finished reading data.cal
(PID.TID 0000.0001) 
(PID.TID 0000.0001) // =======================================================
(PID.TID 0000.0001) // Calendar configuration >>> START <<<
(PID.TID 0000.0001) // =======================================================
(PID.TID 0000.0001) 
(PID.TID 0000.0001) Calendar version: 0.2.0
(PID.TID 0000.0001) 
(PID.TID 0000.0001) startTime =   /* Start time of the model integration [s] */
(PID.TID 0000.0001)                 0.000000000000000E+00
(PID.TID 0000.0001)     ;
(PID.TID 0000.0001) endTime =   /* End time of the model integration [s] */
(PID.TID 0000.0001)                 1.440000000000000E+04
(PID.TID 0000.0001)     ;
(PID.TID 0000.0001) deltatclock =   /* Time interval for a model forward step [s] */
(PID.TID 0000.0001)                 3.600000000000000E+03
(PID.TID 0000.0001)     ;
(PID.TID 0000.0001) usingGregorianCalendar =  /* Calendar Type: Gregorian Calendar */
(PID.TID 0000.0001)                   T
(PID.TID 0000.0001)     ;
(PID.TID 0000.0001) usingJulianCalendar =  /* Calendar Type: Julian Calendar */
(PID.TID 0000.0001)                   F
(PID.TID 0000.0001)     ;
(PID.TID 0000.0001) usingModelCalendar =  /* Calendar Type: Model Calendar */
(PID.TID 0000.0001)                   F
(PID.TID 0000.0001)     ;
(PID.TID 0000.0001) usingNoCalendar =  /* Calendar Type: No Calendar */
(PID.TID 0000.0001)                   F
(PID.TID 0000.0001)     ;
(PID.TID 0000.0001) modelstartdate (YYYYMMDD) =   /* Model start date YYYY-MM-DD  */
(PID.TID 0000.0001)                19790101
(PID.TID 0000.0001)     ;
(PID.TID 0000.0001) modelstartdate (HHMMSS) =   /* Model start date HH-MM-SS  */
(PID.TID 0000.0001)                       0
(PID.TID 0000.0001)     ;
(PID.TID 0000.0001) modelenddate (YYYYMMDD) =   /* Model end date YYYY-MM-DD  */
(PID.TID 0000.0001)                19790101
(PID.TID 0000.0001)     ;
(PID.TID 0000.0001) modelenddate (HHMMSS) =   /* Model end date HH-MM-SS  */
(PID.TID 0000.0001)                   40000
(PID.TID 0000.0001)     ;
(PID.TID 0000.0001) intyears =   /* Number of calendar years affected by the integration  */
(PID.TID 0000.0001)                       1
(PID.TID 0000.0001)     ;
(PID.TID 0000.0001) intmonths =   /* Number of calendar months affected by the integration  */
(PID.TID 0000.0001)                       1
(PID.TID 0000.0001)     ;
(PID.TID 0000.0001) intdays =   /* Number of calendar days affected by the integration  */
(PID.TID 0000.0001)                       1
(PID.TID 0000.0001)     ;
(PID.TID 0000.0001) nIter0 =   /* Base timestep number  */
(PID.TID 0000.0001)                       0
(PID.TID 0000.0001)     ;
(PID.TID 0000.0001) nEndIter =   /* Final timestep number  */
(PID.TID 0000.0001)                       4
(PID.TID 0000.0001)     ;
(PID.TID 0000.0001) nTimeSteps =   /* Number of model timesteps  */
(PID.TID 0000.0001)                       4
(PID.TID 0000.0001)     ;
(PID.TID 0000.0001) 
(PID.TID 0000.0001) // =======================================================
(PID.TID 0000.0001) // Calendar configuration  >>> END <<<
(PID.TID 0000.0001) // =======================================================
(PID.TID 0000.0001) 
(PID.TID 0000.0001)  GM_READPARMS: opening data.gmredi
(PID.TID 0000.0001)  OPEN_COPY_DATA_FILE: opening file data.gmredi
(PID.TID 0000.0001) // =======================================================
(PID.TID 0000.0001) // Parameter file "data.gmredi"
(PID.TID 0000.0001) // =======================================================
(PID.TID 0000.0001) ># GM+Redi package parameters:
(PID.TID 0000.0001) >#     GM_Small_Number  :: epsilon used in computing the slope
(PID.TID 0000.0001) >#     GM_slopeSqCutoff :: slope^2 cut-off value
(PID.TID 0000.0001) >
(PID.TID 0000.0001) >#-from MOM :
(PID.TID 0000.0001) ># GM_background_K: 	G & Mc.W  diffusion coefficient
(PID.TID 0000.0001) ># GM_maxSlope    :	max slope of isopycnals
(PID.TID 0000.0001) ># GM_Scrit       :	transition for scaling diffusion coefficient
(PID.TID 0000.0001) ># GM_Sd          :	half width scaling for diffusion coefficient
(PID.TID 0000.0001) ># GM_taper_scheme:	slope clipping or one of the tapering schemes
(PID.TID 0000.0001) ># GM_Kmin_horiz  :	horizontal diffusion minimum value
(PID.TID 0000.0001) >
(PID.TID 0000.0001) >#-Option parameters (needs to "define" options in GMREDI_OPTIONS.h")
(PID.TID 0000.0001) ># GM_isopycK     :	isopycnal diffusion coefficient (default=GM_background_K)
(PID.TID 0000.0001) ># GM_AdvForm     :	turn on GM Advective form       (default=Skew flux form)
(PID.TID 0000.0001) >
(PID.TID 0000.0001) > &GM_PARM01
(PID.TID 0000.0001) >  GM_Small_Number  = 1.D-20,
(PID.TID 0000.0001) >  GM_slopeSqCutoff = 1.D+08,
(PID.TID 0000.0001) >  GM_AdvForm         = .FALSE.,
(PID.TID 0000.0001) >#  GM_isopycK         = 1.1D+3,
(PID.TID 0000.0001) >#  GM_background_K    = 0.9D+3,
(PID.TID 0000.0001) >  GM_background_K    = 1.D+3,
(PID.TID 0000.0001) >  GM_taper_scheme    = 'dm95',
(PID.TID 0000.0001) >  GM_maxSlope        = 1.D-2,
(PID.TID 0000.0001) >  GM_Kmin_horiz      = 50.,
(PID.TID 0000.0001) >  GM_Scrit           = 4.D-3,
(PID.TID 0000.0001) >  GM_Sd              = 1.D-3,
(PID.TID 0000.0001) >#  GM_Visbeck_alpha   = 1.5D-2,
(PID.TID 0000.0001) >  GM_Visbeck_alpha   = 0.,
(PID.TID 0000.0001) >  GM_Visbeck_length  = 2.D+5,
(PID.TID 0000.0001) >  GM_Visbeck_depth   = 1.D+3,
(PID.TID 0000.0001) >  GM_Visbeck_maxval_K= 2.5D+3,
(PID.TID 0000.0001) > &
(PID.TID 0000.0001) >
(PID.TID 0000.0001) >
(PID.TID 0000.0001) 
(PID.TID 0000.0001)  GM_READPARMS: finished reading data.gmredi
(PID.TID 0000.0001)  DWNSLP_READPARMS: opening data.down_slope
(PID.TID 0000.0001)  OPEN_COPY_DATA_FILE: opening file data.down_slope
(PID.TID 0000.0001) // =======================================================
(PID.TID 0000.0001) // Parameter file "data.down_slope"
(PID.TID 0000.0001) // =======================================================
(PID.TID 0000.0001) ># DOWN_SLOPE package parameters (lines beginning "#" are comments):
(PID.TID 0000.0001) >#   DWNSLP_slope  :: fixed slope (=0 => use the local slope)
(PID.TID 0000.0001) >#   DWNSLP_rec_mu :: reciprol friction parameter (unit = time scale [s])
(PID.TID 0000.0001) >#         used to compute the flow: U=dy*dz*(slope * g/mu * dRho / rho0)
(PID.TID 0000.0001) >#   dwnslp_drFlow :: max. thickness [m] of the effective downsloping flow layer
(PID.TID 0000.0001) > &DWNSLP_PARM01
(PID.TID 0000.0001) >  DWNSLP_slope = 5.E-3,
(PID.TID 0000.0001) >  DWNSLP_rec_mu= 1.E+4,
(PID.TID 0000.0001) >  DWNSLP_drFlow= 30.,
(PID.TID 0000.0001) ># temp_useDWNSLP=.FALSE.,
(PID.TID 0000.0001) ># salt_useDWNSLP=.FALSE.,
(PID.TID 0000.0001) > &
(PID.TID 0000.0001) 
(PID.TID 0000.0001)  DWNSLP_READPARMS: finished reading data.downslp
(PID.TID 0000.0001) DWNSLP_slope =   /* DOWNSLP fixed slope (=0 => use local slope) */
(PID.TID 0000.0001)                 5.000000000000000E-03
(PID.TID 0000.0001)     ;
(PID.TID 0000.0001) DWNSLP_rec_mu =   /* DOWNSLP recip. friction parameter (time, s ) */
(PID.TID 0000.0001)                 1.000000000000000E+04
(PID.TID 0000.0001)     ;
(PID.TID 0000.0001) DWNSLP_drFlow =   /* DOWNSLP effective layer thickness ( m ) */
(PID.TID 0000.0001)                 3.000000000000000E+01
(PID.TID 0000.0001)     ;
(PID.TID 0000.0001)  KPP_INIT: opening data.kpp
(PID.TID 0000.0001)  OPEN_COPY_DATA_FILE: opening file data.kpp
(PID.TID 0000.0001) // =======================================================
(PID.TID 0000.0001) // Parameter file "data.kpp"
(PID.TID 0000.0001) // =======================================================
(PID.TID 0000.0001) ># KPP parameters
(PID.TID 0000.0001) > &KPP_PARM01
(PID.TID 0000.0001) > KPPmixingMaps   = .FALSE.,
(PID.TID 0000.0001) > KPPwriteState   = .TRUE.,
(PID.TID 0000.0001) > KPP_ghatUseTotalDiffus=.TRUE.,
(PID.TID 0000.0001) > &
(PID.TID 0000.0001) 
(PID.TID 0000.0001)  KPP_INIT: finished reading data.kpp
(PID.TID 0000.0001) 
(PID.TID 0000.0001)  SEAICE_READPARMS: opening data.seaice
(PID.TID 0000.0001)  OPEN_COPY_DATA_FILE: opening file data.seaice
(PID.TID 0000.0001) // =======================================================
(PID.TID 0000.0001) // Parameter file "data.seaice"
(PID.TID 0000.0001) // =======================================================
(PID.TID 0000.0001) ># SEAICE parameters
(PID.TID 0000.0001) > &SEAICE_PARM01
(PID.TID 0000.0001) >      SEAICEwriteState   = .TRUE.,
(PID.TID 0000.0001) >      SEAICE_initialHEFF = 1.0,
(PID.TID 0000.0001) >      SEAICE_deltaTtherm = 3600.,
(PID.TID 0000.0001) >      SEAICE_deltaTdyn   = 3600.,
(PID.TID 0000.0001) >      SEAICEuseDYNAMICS  =.TRUE.,
(PID.TID 0000.0001) >#-- According to Martin, SEAICE_clipVelocities is not recommended
(PID.TID 0000.0001) >#     SEAICE_clipVelocities=.TRUE.,
(PID.TID 0000.0001) >      SEAICEadvSalt      =.FALSE.,
(PID.TID 0000.0001) >      SEAICEadvAge       =.FALSE.,
(PID.TID 0000.0001) >#-- above: to reproduce old results
(PID.TID 0000.0001) >      LSR_ERROR          = 1.E-6,
(PID.TID 0000.0001) >###      SEAICE_deltaTevp   = 60,
(PID.TID 0000.0001) >      SEAICE_EPS         = 1.E-8,
(PID.TID 0000.0001) >      SEAICE_salinity    = 0.3,
(PID.TID 0000.0001) >      SEAICE_availHeatFrac = 0.8,
(PID.TID 0000.0001) >      SEAICEadvSnow      = .TRUE.,
(PID.TID 0000.0001) >      SEAICEuseFlooding  = .TRUE.,
(PID.TID 0000.0001) >#     SEAICE_tave_mnc    = .FALSE.,
(PID.TID 0000.0001) >#     SEAICE_dump_mnc    = .FALSE.,
(PID.TID 0000.0001) >#     SEAICE_mon_mnc     = .FALSE.,
(PID.TID 0000.0001) >      ICE2WATR           = 0.92D0,
(PID.TID 0000.0001) > &
(PID.TID 0000.0001) > &SEAICE_PARM02
(PID.TID 0000.0001) >  mult_ice   = 1.,
(PID.TID 0000.0001) ># choose which seaice cost term you want
(PID.TID 0000.0001) >  cost_ice_flag = 1,
(PID.TID 0000.0001) ># the following timings are obsolete;
(PID.TID 0000.0001) ># replaced by lastinterval
(PID.TID 0000.0001) > costIceStart1        = 20000101,
(PID.TID 0000.0001) > costIceStart2        = 00000,
(PID.TID 0000.0001) > costIceEnd1        = 20000201,
(PID.TID 0000.0001) > costIceEnd2        = 00000,
(PID.TID 0000.0001) > &
(PID.TID 0000.0001) 
(PID.TID 0000.0001)  SEAICE_READPARMS: finished reading data.seaice
(PID.TID 0000.0001) 
(PID.TID 0000.0001) // =======================================================
(PID.TID 0000.0001) // Seaice configuration (SEAICE_PARM01) >>> START <<<
(PID.TID 0000.0001) // =======================================================
(PID.TID 0000.0001) 
(PID.TID 0000.0001) model grid type   = /* type of sea ice model grid */
(PID.TID 0000.0001)               'C-GRID'
(PID.TID 0000.0001)     ;
(PID.TID 0000.0001) SEAICEwriteState  = /* write sea ice state to file */
(PID.TID 0000.0001)                   T
(PID.TID 0000.0001)     ;
(PID.TID 0000.0001) SEAICEuseDYNAMICS = /* use dynamics */
(PID.TID 0000.0001)                   T
(PID.TID 0000.0001)     ;
(PID.TID 0000.0001) SEAICEuseTEM      = /* use truncated ellipse rheology */
(PID.TID 0000.0001)                   F
(PID.TID 0000.0001)     ;
(PID.TID 0000.0001) SEAICEuseMetricTerms = /* use metric terms */
(PID.TID 0000.0001)                   T
(PID.TID 0000.0001)     ;
(PID.TID 0000.0001) SEAICEuseEVP      = /* use EVP solver */
(PID.TID 0000.0001)                   F
(PID.TID 0000.0001)     ;
(PID.TID 0000.0001) SEAICE_no_slip    = /* no slip boundary conditions */
(PID.TID 0000.0001)                   F
(PID.TID 0000.0001)     ;
(PID.TID 0000.0001) SEAICE_maskRHS    = /* mask RHS of solver */
(PID.TID 0000.0001)                   F
(PID.TID 0000.0001)     ;
(PID.TID 0000.0001) SEAICE_clipVeloctities = /* impose max. vels. */
(PID.TID 0000.0001)                   F
(PID.TID 0000.0001)     ;
(PID.TID 0000.0001) useHB87stressCoupling  = /* altern. ice-ocean stress */
(PID.TID 0000.0001)                   F
(PID.TID 0000.0001)     ;
(PID.TID 0000.0001) SEAICErestoreUnderIce  = /* restore T and S under ice */
(PID.TID 0000.0001)                   F
(PID.TID 0000.0001)     ;
(PID.TID 0000.0001) usePW79thermodynamics  = /* default 0-layer TD */
(PID.TID 0000.0001)                   T
(PID.TID 0000.0001)     ;
(PID.TID 0000.0001) SEAICEadvHeff = /* advect effective ice thickness */
(PID.TID 0000.0001)                   T
(PID.TID 0000.0001)     ;
(PID.TID 0000.0001) SEAICEadvArea = /* advect fractional ice area */
(PID.TID 0000.0001)                   T
(PID.TID 0000.0001)     ;
(PID.TID 0000.0001) SEAICEadvSnow = /* advect snow layer together with ice */
(PID.TID 0000.0001)                   T
(PID.TID 0000.0001)     ;
(PID.TID 0000.0001) SEAICEadvSalt = /* advect salinity together with ice */
(PID.TID 0000.0001)                   F
(PID.TID 0000.0001)     ;
(PID.TID 0000.0001) SEAICEuseFlooding = /* turn submerged snow into ice */
(PID.TID 0000.0001)                   T
(PID.TID 0000.0001)     ;
(PID.TID 0000.0001) LAD               = /* time stepping scheme */
(PID.TID 0000.0001)                       2
(PID.TID 0000.0001)     ;
(PID.TID 0000.0001) IMAX_TICE         = /* iterations for ice heat budget */
(PID.TID 0000.0001)                      10
(PID.TID 0000.0001)     ;
(PID.TID 0000.0001) SEAICEadvScheme   = /* advection scheme for ice */
(PID.TID 0000.0001)                       2
(PID.TID 0000.0001)     ;
(PID.TID 0000.0001) SEAICEuseFluxForm = /* advection in FV flux form */
(PID.TID 0000.0001)                   F
(PID.TID 0000.0001)     ;
(PID.TID 0000.0001) SEAICEadvSchArea   = /* advection scheme for area */
(PID.TID 0000.0001)                       2
(PID.TID 0000.0001)     ;
(PID.TID 0000.0001) SEAICEadvSchHeff   = /* advection scheme for thickness */
(PID.TID 0000.0001)                       2
(PID.TID 0000.0001)     ;
(PID.TID 0000.0001) SEAICEadvSchSnow   = /* advection scheme for snow */
(PID.TID 0000.0001)                       2
(PID.TID 0000.0001)     ;
(PID.TID 0000.0001) SEAICE_deltaTtherm= /* thermodynamic timestep */
(PID.TID 0000.0001)                 3.600000000000000E+03
(PID.TID 0000.0001)     ;
(PID.TID 0000.0001) SEAICE_deltaTdyn  = /* dynamic timestep */
(PID.TID 0000.0001)                 3.600000000000000E+03
(PID.TID 0000.0001)     ;
(PID.TID 0000.0001) SEAICE_deltaTevp  = /* EVP timestep */
(PID.TID 0000.0001)                 1.234567000000000E+05
(PID.TID 0000.0001)     ;
(PID.TID 0000.0001) SEAICE_elasticParm= /* EVP elastic parameter */
(PID.TID 0000.0001)                 3.333333333333333E-01
(PID.TID 0000.0001)     ;
(PID.TID 0000.0001) SEAICE_evpTauRelax= /* EVP relaxation timescale */
(PID.TID 0000.0001)                -1.000000000000000E+00
(PID.TID 0000.0001)     ;
(PID.TID 0000.0001) SEAICE_evpDampC   = /* EVP damping parameter */
(PID.TID 0000.0001)                -1.000000000000000E+00
(PID.TID 0000.0001)     ;
(PID.TID 0000.0001) SEAICE_availHeatFrac = /* fraction used from melting */
(PID.TID 0000.0001)                 8.000000000000000E-01
(PID.TID 0000.0001)     ;
(PID.TID 0000.0001) SEAICE_gamma_t    = /* melting timescale due to warm ML*/
(PID.TID 0000.0001)                 1.234567000000000E+05
(PID.TID 0000.0001)     ;
(PID.TID 0000.0001) SEAICE_zetaMin    = /* lower bound for viscosity */
(PID.TID 0000.0001)                 0.000000000000000E+00
(PID.TID 0000.0001)     ;
(PID.TID 0000.0001) SEAICE_monFreq  = /* monitor frequency */
(PID.TID 0000.0001)                 1.000000000000000E+00
(PID.TID 0000.0001)     ;
(PID.TID 0000.0001) SEAICE_dumpFreq   = /* dump frequency */
(PID.TID 0000.0001)                 0.000000000000000E+00
(PID.TID 0000.0001)     ;
(PID.TID 0000.0001) SEAICE_taveFreq   = /* time-averaging frequency */
(PID.TID 0000.0001)                 3.600000000000000E+04
(PID.TID 0000.0001)     ;
(PID.TID 0000.0001) SEAICE_mon_stdio  = /* write monitor to std-outp */
(PID.TID 0000.0001)                   T
(PID.TID 0000.0001)     ;
(PID.TID 0000.0001) SEAICE_dump_mdsio = /* write snap-shot   using MDSIO */
(PID.TID 0000.0001)                   F
(PID.TID 0000.0001)     ;
(PID.TID 0000.0001) SEAICE_tave_mdsio = /* write TimeAverage using MDSIO */
(PID.TID 0000.0001)                   F
(PID.TID 0000.0001)     ;
(PID.TID 0000.0001) SEAICE_mon_mnc    = /* write monitor to netcdf file */
(PID.TID 0000.0001)                   F
(PID.TID 0000.0001)     ;
(PID.TID 0000.0001) SEAICE_dump_mnc   = /* write snap-shot   using MNC */
(PID.TID 0000.0001)                   T
(PID.TID 0000.0001)     ;
(PID.TID 0000.0001) SEAICE_tave_mnc   = /* write TimeAverage using MNC */
(PID.TID 0000.0001)                   T
(PID.TID 0000.0001)     ;
(PID.TID 0000.0001) SEAICE_initialHEFF= /* initial sea-ice thickness */
(PID.TID 0000.0001)                 1.000000000000000E+00
(PID.TID 0000.0001)     ;
(PID.TID 0000.0001) OCEAN_drag        = /* air-ocean drag coefficient */
(PID.TID 0000.0001)                 1.000000000000000E-03
(PID.TID 0000.0001)     ;
(PID.TID 0000.0001) SEAICE_drag       = /* air-ice drag coefficient */
(PID.TID 0000.0001)                 2.000000000000000E-03
(PID.TID 0000.0001)     ;
(PID.TID 0000.0001) SEAICE_waterDrag  = /* water-ice drag * density */
(PID.TID 0000.0001)                 5.500000000000000E+00
(PID.TID 0000.0001)     ;
(PID.TID 0000.0001) SEAICE_dryIceAlb  = /* winter albedo */
(PID.TID 0000.0001)                 7.500000000000000E-01
(PID.TID 0000.0001)     ;
(PID.TID 0000.0001) SEAICE_wetIceAlb  = /* summer albedo */
(PID.TID 0000.0001)                 6.600000000000000E-01
(PID.TID 0000.0001)     ;
(PID.TID 0000.0001) SEAICE_drySnowAlb = /* dry snow albedo */
(PID.TID 0000.0001)                 8.400000000000000E-01
(PID.TID 0000.0001)     ;
(PID.TID 0000.0001) SEAICE_wetSnowAlb = /* wet snow albedo */
(PID.TID 0000.0001)                 7.000000000000000E-01
(PID.TID 0000.0001)     ;
(PID.TID 0000.0001) HO                = /* demarcation ice thickness */
(PID.TID 0000.0001)                 5.000000000000000E-01
(PID.TID 0000.0001)     ;
(PID.TID 0000.0001) SEAICE_drag_south      = /* Southern Ocean SEAICE_drag */
(PID.TID 0000.0001)                 2.000000000000000E-03
(PID.TID 0000.0001)     ;
(PID.TID 0000.0001) SEAICE_waterDrag_south = /* Southern Ocean waterDrag */
(PID.TID 0000.0001)                 5.500000000000000E+00
(PID.TID 0000.0001)     ;
(PID.TID 0000.0001) SEAICE_dryIceAlb_south = /* Southern Ocean dryIceAlb */
(PID.TID 0000.0001)                 7.500000000000000E-01
(PID.TID 0000.0001)     ;
(PID.TID 0000.0001) SEAICE_wetIceAlb_south = /* Southern Ocean wetIceAlb */
(PID.TID 0000.0001)                 6.600000000000000E-01
(PID.TID 0000.0001)     ;
(PID.TID 0000.0001) SEAICE_drySnowAlb_south= /* Southern Ocean drySnowAlb */
(PID.TID 0000.0001)                 8.400000000000000E-01
(PID.TID 0000.0001)     ;
(PID.TID 0000.0001) SEAICE_wetSnowAlb_south= /* Southern Ocean wetSnowAlb */
(PID.TID 0000.0001)                 7.000000000000000E-01
(PID.TID 0000.0001)     ;
(PID.TID 0000.0001) HO_south               = /* Southern Ocean HO */
(PID.TID 0000.0001)                 5.000000000000000E-01
(PID.TID 0000.0001)     ;
(PID.TID 0000.0001) SEAICE_waterAlbedo= /* water albedo */
(PID.TID 0000.0001)                 1.000000000000000E-01
(PID.TID 0000.0001)     ;
(PID.TID 0000.0001) SEAICE_strength   = /* sea-ice strength Pstar */
(PID.TID 0000.0001)                 2.750000000000000E+04
(PID.TID 0000.0001)     ;
(PID.TID 0000.0001) SEAICE_sensHeat   = /* sensible heat transfer */
(PID.TID 0000.0001)                 2.284000000000000E+00
(PID.TID 0000.0001)     ;
(PID.TID 0000.0001) SEAICE_latentWater= /* latent heat transfer for water */
(PID.TID 0000.0001)                 5.687500000000000E+03
(PID.TID 0000.0001)     ;
(PID.TID 0000.0001) SEAICE_latentIce  = /* latent heat transfer for ice */
(PID.TID 0000.0001)                 6.447400000000000E+03
(PID.TID 0000.0001)     ;
(PID.TID 0000.0001) SEAICE_iceConduct = /* sea-ice conductivity */
(PID.TID 0000.0001)                 2.165600000000000E+00
(PID.TID 0000.0001)     ;
(PID.TID 0000.0001) SEAICE_snowConduct= /* snow conductivity */
(PID.TID 0000.0001)                 3.100000000000000E-01
(PID.TID 0000.0001)     ;
(PID.TID 0000.0001) SEAICE_emissivity = /* Stefan-Boltzman * emissivity */
(PID.TID 0000.0001)                 5.500000000000000E-08
(PID.TID 0000.0001)     ;
(PID.TID 0000.0001) SEAICE_snowThick  = /* cutoff snow thickness */
(PID.TID 0000.0001)                 1.500000000000000E-01
(PID.TID 0000.0001)     ;
(PID.TID 0000.0001) SEAICE_shortwave  = /* penetration shortwave radiation */
(PID.TID 0000.0001)                 3.000000000000000E-01
(PID.TID 0000.0001)     ;
(PID.TID 0000.0001) SEAICE_freeze     = /* freezing temp. of sea water */
(PID.TID 0000.0001)                -1.960000000000000E+00
(PID.TID 0000.0001)     ;
(PID.TID 0000.0001) Initial sea-ice concentration is read from file:
(PID.TID 0000.0001)    >>    <<
(PID.TID 0000.0001) Initial sea-ice thickness is read from file:
(PID.TID 0000.0001)    >>    <<
(PID.TID 0000.0001)     ;
(PID.TID 0000.0001) SOLV_MAX_ITERS    = /* max. number of LSR solver steps */
(PID.TID 0000.0001)                    1500
(PID.TID 0000.0001)     ;
(PID.TID 0000.0001) SOLV_NCHECK       = /* test interval for LSR solver */
(PID.TID 0000.0001)                       2
(PID.TID 0000.0001)     ;
(PID.TID 0000.0001) NPSEUDOTIMESTEPS  = /* num. of extra pseudo time steps */
(PID.TID 0000.0001)                       2
(PID.TID 0000.0001)     ;
(PID.TID 0000.0001) LSR_ERROR         = /* sets accuracy of LSR solver */
(PID.TID 0000.0001)                 1.000000000000000E-06
(PID.TID 0000.0001)     ;
(PID.TID 0000.0001) DIFF1             = /* parameter used in advect.F */
(PID.TID 0000.0001)                 4.000000000000000E-03
(PID.TID 0000.0001)     ;
(PID.TID 0000.0001) A22               = /* parameter used in growth.F */
(PID.TID 0000.0001)                 1.500000000000000E-01
(PID.TID 0000.0001)     ;
(PID.TID 0000.0001) MAX_HEFF          = /* maximum ice thickness */
(PID.TID 0000.0001)                 1.000000000000000E+01
(PID.TID 0000.0001)     ;
(PID.TID 0000.0001) MIN_ATEMP         = /* minimum air temperature */
(PID.TID 0000.0001)                -5.000000000000000E+01
(PID.TID 0000.0001)     ;
(PID.TID 0000.0001) MIN_LWDOWN        = /* minimum downward longwave */
(PID.TID 0000.0001)                 6.000000000000000E+01
(PID.TID 0000.0001)     ;
(PID.TID 0000.0001) MAX_TICE          = /* maximum ice temperature */
(PID.TID 0000.0001)                 3.000000000000000E+01
(PID.TID 0000.0001)     ;
(PID.TID 0000.0001) MIN_TICE          = /* minimum ice temperature */
(PID.TID 0000.0001)                -5.000000000000000E+01
(PID.TID 0000.0001)     ;
(PID.TID 0000.0001) SEAICE_EPS        = /* reduce derivative singularities */
(PID.TID 0000.0001)                 1.000000000000000E-08
(PID.TID 0000.0001)     ;
(PID.TID 0000.0001) // =======================================================
(PID.TID 0000.0001) // Seaice configuration (SEAICE_PARM01) >>> END <<<
(PID.TID 0000.0001) // =======================================================
(PID.TID 0000.0001) OPTIM_READPARMS: opening data.optim
(PID.TID 0000.0001)  OPEN_COPY_DATA_FILE: opening file data.optim
(PID.TID 0000.0001) // =======================================================
(PID.TID 0000.0001) // Parameter file "data.optim"
(PID.TID 0000.0001) // =======================================================
(PID.TID 0000.0001) >#
(PID.TID 0000.0001) ># ********************************
(PID.TID 0000.0001) ># Off-line optimization parameters
(PID.TID 0000.0001) ># ********************************
(PID.TID 0000.0001) > &OPTIM
(PID.TID 0000.0001) > optimcycle=0,
(PID.TID 0000.0001) > &
(PID.TID 0000.0001) 
(PID.TID 0000.0001) OPTIM_READPARMS: finished reading data.optim
(PID.TID 0000.0001) CTRL_READPARMS: opening data.ctrl
(PID.TID 0000.0001)  OPEN_COPY_DATA_FILE: opening file data.ctrl
(PID.TID 0000.0001) // =======================================================
(PID.TID 0000.0001) // Parameter file "data.ctrl"
(PID.TID 0000.0001) // =======================================================
(PID.TID 0000.0001) >#
(PID.TID 0000.0001) >#
(PID.TID 0000.0001) ># *********************
(PID.TID 0000.0001) ># ECCO controlvariables
(PID.TID 0000.0001) ># *********************
(PID.TID 0000.0001) > &CTRL_NML
(PID.TID 0000.0001) ># doSinglePrecTapelev=.TRUE.,
(PID.TID 0000.0001) > xx_theta_file      ='xx_theta',
(PID.TID 0000.0001) > xx_salt_file       ='xx_salt',
(PID.TID 0000.0001) > xx_siarea_file     ='xx_siarea',
(PID.TID 0000.0001) > xx_siheff_file     ='xx_siheff',
(PID.TID 0000.0001) > xx_sihsnow_file    ='xx_sihsnow',
(PID.TID 0000.0001) >#
(PID.TID 0000.0001) > xx_hfluxstartdate1 = 19790101,
(PID.TID 0000.0001) > xx_hfluxstartdate2 = 000000,
(PID.TID 0000.0001) > xx_hfluxperiod     = 864000.0,
(PID.TID 0000.0001) > xx_hflux_file      = 'xx_hfl',
(PID.TID 0000.0001) >#
(PID.TID 0000.0001) > xx_sfluxstartdate1 = 19790101,
(PID.TID 0000.0001) > xx_sfluxstartdate2 = 000000,
(PID.TID 0000.0001) > xx_sfluxperiod     = 864000.0,
(PID.TID 0000.0001) > xx_sflux_file      = 'xx_sfl',
(PID.TID 0000.0001) >#
(PID.TID 0000.0001) > xx_tauustartdate1 = 19790101,
(PID.TID 0000.0001) > xx_tauustartdate2 = 000000,
(PID.TID 0000.0001) > xx_tauuperiod     = 864000.0,
(PID.TID 0000.0001) > xx_tauu_file      = 'xx_tauu',
(PID.TID 0000.0001) >#
(PID.TID 0000.0001) > xx_tauvstartdate1 = 19790101,
(PID.TID 0000.0001) > xx_tauvstartdate2 = 000000,
(PID.TID 0000.0001) > xx_tauvperiod     = 864000.0,
(PID.TID 0000.0001) > xx_tauv_file      = 'xx_tauv',
(PID.TID 0000.0001) >#
(PID.TID 0000.0001) > xx_atempstartdate1 = 19790101,
(PID.TID 0000.0001) > xx_atempstartdate2 = 000000,
(PID.TID 0000.0001) > xx_atempperiod     = 864000.0,
(PID.TID 0000.0001) > xx_atemp_file      = 'xx_atemp',
(PID.TID 0000.0001) >#
(PID.TID 0000.0001) > xx_aqhstartdate1 = 19790101,
(PID.TID 0000.0001) > xx_aqhstartdate2 = 000000,
(PID.TID 0000.0001) > xx_aqhperiod     = 864000.0,
(PID.TID 0000.0001) > xx_aqh_file      = 'xx_aqh',
(PID.TID 0000.0001) >#
(PID.TID 0000.0001) > xx_precipstartdate1 = 19790101,
(PID.TID 0000.0001) > xx_precipstartdate2 = 000000,
(PID.TID 0000.0001) > xx_precipperiod     = 864000.0,
(PID.TID 0000.0001) > xx_precip_file      = 'xx_precip',
(PID.TID 0000.0001) >#
(PID.TID 0000.0001) > xx_swfluxstartdate1 = 19790101,
(PID.TID 0000.0001) > xx_swfluxstartdate2 = 000000,
(PID.TID 0000.0001) > xx_swfluxperiod     = 864000.0,
(PID.TID 0000.0001) > xx_swflux_file      = 'xx_swflux',
(PID.TID 0000.0001) >#
(PID.TID 0000.0001) > xx_swdownstartdate1 = 19790101,
(PID.TID 0000.0001) > xx_swdownstartdate2 = 000000,
(PID.TID 0000.0001) > xx_swdownperiod     = 864000.0,
(PID.TID 0000.0001) > xx_swdown_file      = 'xx_swdown',
(PID.TID 0000.0001) >#
(PID.TID 0000.0001) > xx_lwfluxstartdate1 = 19790101,
(PID.TID 0000.0001) > xx_lwfluxstartdate2 = 000000,
(PID.TID 0000.0001) > xx_lwfluxperiod     = 864000.0,
(PID.TID 0000.0001) > xx_lwflux_file      = 'xx_lwflux',
(PID.TID 0000.0001) >#
(PID.TID 0000.0001) > xx_lwdownstartdate1 = 19790101,
(PID.TID 0000.0001) > xx_lwdownstartdate2 = 000000,
(PID.TID 0000.0001) > xx_lwdownperiod     = 864000.0,
(PID.TID 0000.0001) > xx_lwdown_file      = 'xx_lwdown',
(PID.TID 0000.0001) >#
(PID.TID 0000.0001) > xx_evapstartdate1 = 19790101,
(PID.TID 0000.0001) > xx_evapstartdate2 = 000000,
(PID.TID 0000.0001) > xx_evapperiod     = 864000.0,
(PID.TID 0000.0001) > xx_evap_file      = 'xx_evap',
(PID.TID 0000.0001) >#
(PID.TID 0000.0001) > xx_snowprecipstartdate1 = 19790101,
(PID.TID 0000.0001) > xx_snowprecipstartdate2 = 000000,
(PID.TID 0000.0001) > xx_snowprecipperiod     = 864000.0,
(PID.TID 0000.0001) > xx_snowprecip_file      = 'xx_snowprecip',
(PID.TID 0000.0001) >#
(PID.TID 0000.0001) > xx_apressurestartdate1 = 19790101,
(PID.TID 0000.0001) > xx_apressurestartdate2 = 000000,
(PID.TID 0000.0001) > xx_apressureperiod     = 864000.0,
(PID.TID 0000.0001) > xx_apressure_file      = 'xx_apressure',
(PID.TID 0000.0001) >#
(PID.TID 0000.0001) > xx_uwindstartdate1 = 19790101,
(PID.TID 0000.0001) > xx_uwindstartdate2 = 000000,
(PID.TID 0000.0001) > xx_uwindperiod     = 864000.0,
(PID.TID 0000.0001) > xx_uwind_file      = 'xx_uwind',
(PID.TID 0000.0001) >#
(PID.TID 0000.0001) > xx_vwindstartdate1 = 19790101,
(PID.TID 0000.0001) > xx_vwindstartdate2 = 000000,
(PID.TID 0000.0001) > xx_vwindperiod     = 864000.0,
(PID.TID 0000.0001) > xx_vwind_file      = 'xx_vwind',
(PID.TID 0000.0001) > &
(PID.TID 0000.0001) >#
(PID.TID 0000.0001) ># *********************
(PID.TID 0000.0001) ># names for ctrl_pack/unpack
(PID.TID 0000.0001) ># *********************
(PID.TID 0000.0001) > &CTRL_PACKNAMES
(PID.TID 0000.0001) > &
(PID.TID 0000.0001) 
(PID.TID 0000.0001) CTRL_READPARMS: finished reading data.ctrl
(PID.TID 0000.0001) COST_READPARMS: opening data.cost
(PID.TID 0000.0001)  OPEN_COPY_DATA_FILE: opening file data.cost
(PID.TID 0000.0001) // =======================================================
(PID.TID 0000.0001) // Parameter file "data.cost"
(PID.TID 0000.0001) // =======================================================
(PID.TID 0000.0001) >#
(PID.TID 0000.0001) >#
(PID.TID 0000.0001) ># ******************
(PID.TID 0000.0001) ># cost function
(PID.TID 0000.0001) ># ******************
(PID.TID 0000.0001) > &COST_NML
(PID.TID 0000.0001) > &
(PID.TID 0000.0001) 
(PID.TID 0000.0001) COST_READPARMS: finished reading data.cost
(PID.TID 0000.0001) GRDCHK_READPARMS: opening data.grdchk
(PID.TID 0000.0001)  OPEN_COPY_DATA_FILE: opening file data.grdchk
(PID.TID 0000.0001) // =======================================================
(PID.TID 0000.0001) // Parameter file "data.grdchk"
(PID.TID 0000.0001) // =======================================================
(PID.TID 0000.0001) >
(PID.TID 0000.0001) ># *******************
(PID.TID 0000.0001) ># ECCO gradient check
(PID.TID 0000.0001) ># *******************
(PID.TID 0000.0001) > &GRDCHK_NML
(PID.TID 0000.0001) > grdchk_eps       = 1.d-4,
(PID.TID 0000.0001) ># nbeg             = 4,
(PID.TID 0000.0001) > iGloPos          = 4,
(PID.TID 0000.0001) > jGloPos          = 8,
(PID.TID 0000.0001) > kGloPos          = 1,
(PID.TID 0000.0001) > nstep            = 1,
(PID.TID 0000.0001) > nend             = 4,
(PID.TID 0000.0001) > grdchkvarindex   = 7,
(PID.TID 0000.0001) > &
(PID.TID 0000.0001) 
(PID.TID 0000.0001) GRDCHK_READPARMS: finished reading data.grdchk
(PID.TID 0000.0001) 
(PID.TID 0000.0001) // =======================================================
(PID.TID 0000.0001) // Gradient check configuration  >>> START <<<
(PID.TID 0000.0001) // =======================================================
(PID.TID 0000.0001) 
(PID.TID 0000.0001)   eps:                              0.100E-03
(PID.TID 0000.0001)   First location:                           0
(PID.TID 0000.0001)   Last location:                            4
(PID.TID 0000.0001)   Increment:                                1
(PID.TID 0000.0001) 
(PID.TID 0000.0001) // =======================================================
(PID.TID 0000.0001) // Gradient check configuration  >>> END <<<
(PID.TID 0000.0001) // =======================================================
(PID.TID 0000.0001) 
(PID.TID 0000.0001) EXF_READPARMS: opening data.exf
(PID.TID 0000.0001)  OPEN_COPY_DATA_FILE: opening file data.exf
(PID.TID 0000.0001) // =======================================================
(PID.TID 0000.0001) // Parameter file "data.exf"
(PID.TID 0000.0001) // =======================================================
(PID.TID 0000.0001) ># $Header: /u/gcmpack/MITgcm/verification/lab_sea/results/output_adm.txt,v 1.27 2010/03/30 15:58:30 heimbach Exp $
(PID.TID 0000.0001) >#
(PID.TID 0000.0001) ># *********************
(PID.TID 0000.0001) ># External Forcing Data
(PID.TID 0000.0001) ># *********************
(PID.TID 0000.0001) > &EXF_NML_01
(PID.TID 0000.0001) >#
(PID.TID 0000.0001) > useExfCheckRange  = .TRUE.,
(PID.TID 0000.0001) > repeatPeriod      = 31622400.0,
(PID.TID 0000.0001) > exf_iprec         = 32,
(PID.TID 0000.0001) > exf_yftype        = 'RL',
(PID.TID 0000.0001) >#
(PID.TID 0000.0001) > &
(PID.TID 0000.0001) >
(PID.TID 0000.0001) ># *********************
(PID.TID 0000.0001) > &EXF_NML_02
(PID.TID 0000.0001) >#
(PID.TID 0000.0001) > hfluxstartdate1   = 19781216,
(PID.TID 0000.0001) > hfluxstartdate2   = 180000,
(PID.TID 0000.0001) > hfluxperiod       = 2635200.0,
(PID.TID 0000.0001) >#
(PID.TID 0000.0001) > sfluxstartdate1   = 19781216,
(PID.TID 0000.0001) > sfluxstartdate2   = 180000,
(PID.TID 0000.0001) > sfluxperiod       = 2635200.0,
(PID.TID 0000.0001) >#
(PID.TID 0000.0001) > ustressstartdate1 = 19781216,
(PID.TID 0000.0001) > ustressstartdate2 = 180000,
(PID.TID 0000.0001) > ustressperiod     = 2635200.0,
(PID.TID 0000.0001) >#
(PID.TID 0000.0001) > vstressstartdate1 = 19781216,
(PID.TID 0000.0001) > vstressstartdate2 = 180000,
(PID.TID 0000.0001) > vstressperiod     = 2635200.0,
(PID.TID 0000.0001) >#
(PID.TID 0000.0001) > atempstartdate1   = 19781216,
(PID.TID 0000.0001) > atempstartdate2   = 180000,
(PID.TID 0000.0001) > atempperiod       = 2635200.0,
(PID.TID 0000.0001) >#
(PID.TID 0000.0001) > aqhstartdate1     = 19781216,
(PID.TID 0000.0001) > aqhstartdate2     = 180000,
(PID.TID 0000.0001) > aqhperiod         = 2635200.0,
(PID.TID 0000.0001) >#
(PID.TID 0000.0001) >#evapstartdate1    = 19781216,
(PID.TID 0000.0001) >#evapstartdate2    = 180000,
(PID.TID 0000.0001) >#evapperiod        = 2635200.0,
(PID.TID 0000.0001) >#
(PID.TID 0000.0001) > precipstartdate1  = 19781216,
(PID.TID 0000.0001) > precipstartdate2  = 180000,
(PID.TID 0000.0001) > precipperiod      = 2635200.0,
(PID.TID 0000.0001) >#
(PID.TID 0000.0001) > uwindstartdate1   = 19781216,
(PID.TID 0000.0001) > uwindstartdate2   = 180000,
(PID.TID 0000.0001) > uwindperiod       = 2635200.0,
(PID.TID 0000.0001) >#
(PID.TID 0000.0001) > vwindstartdate1   = 19781216,
(PID.TID 0000.0001) > vwindstartdate2   = 180000,
(PID.TID 0000.0001) > vwindperiod       = 2635200.0,
(PID.TID 0000.0001) >#
(PID.TID 0000.0001) > swfluxstartdate1  = 19781216,
(PID.TID 0000.0001) > swfluxstartdate2  = 180000,
(PID.TID 0000.0001) > swfluxperiod      = 2635200.0,
(PID.TID 0000.0001) >#
(PID.TID 0000.0001) > lwfluxstartdate1  = 19781216,
(PID.TID 0000.0001) > lwfluxstartdate2  = 180000,
(PID.TID 0000.0001) > lwfluxperiod      = 2635200.0,
(PID.TID 0000.0001) >#
(PID.TID 0000.0001) > swdownstartdate1  = 19781216,
(PID.TID 0000.0001) > swdownstartdate2  = 180000,
(PID.TID 0000.0001) > swdownperiod      = 2635200.0,
(PID.TID 0000.0001) >#
(PID.TID 0000.0001) > lwdownstartdate1  = 19781216,
(PID.TID 0000.0001) > lwdownstartdate2  = 180000,
(PID.TID 0000.0001) > lwdownperiod      = 2635200.0,
(PID.TID 0000.0001) >#
(PID.TID 0000.0001) > climsststartdate1  = 19781216,
(PID.TID 0000.0001) > climsststartdate2  = 180000,
(PID.TID 0000.0001) > climsstperiod      = 2635200.0,
(PID.TID 0000.0001) > climsstTauRelax    = 0.0,
(PID.TID 0000.0001) >#
(PID.TID 0000.0001) > climsssstartdate1  = 19781216,
(PID.TID 0000.0001) > climsssstartdate2  = 180000,
(PID.TID 0000.0001) > climsssperiod      = 2635200.0,
(PID.TID 0000.0001) > climsssTauRelax    = 4142330.0,
(PID.TID 0000.0001) >#
(PID.TID 0000.0001) > hfluxfile         = ' ',
(PID.TID 0000.0001) > sfluxfile         = ' ',
(PID.TID 0000.0001) > ustressfile       = ' ',
(PID.TID 0000.0001) > vstressfile       = ' ',
(PID.TID 0000.0001) > atempfile         = 'tair.labsea1979',
(PID.TID 0000.0001) > aqhfile           = 'qa.labsea1979',
(PID.TID 0000.0001) > uwindfile         = 'u10m.labsea1979',
(PID.TID 0000.0001) > vwindfile         = 'v10m.labsea1979',
(PID.TID 0000.0001) >#evapfile          = 'evap.labsea1979',
(PID.TID 0000.0001) > precipfile        = 'prate.labsea1979',
(PID.TID 0000.0001) > lwfluxfile        = ' ',
(PID.TID 0000.0001) > swfluxfile        = ' ',
(PID.TID 0000.0001) > lwdownfile        = 'flo.labsea1979',
(PID.TID 0000.0001) > swdownfile        = 'fsh.labsea1979',
(PID.TID 0000.0001) > runoffFile        = ' '
(PID.TID 0000.0001) > climsstfile       = ' ',
(PID.TID 0000.0001) > climsssfile       = 'SSS_monthly.labsea1979',
(PID.TID 0000.0001) >#
(PID.TID 0000.0001) > &
(PID.TID 0000.0001) >
(PID.TID 0000.0001) ># *********************
(PID.TID 0000.0001) > &EXF_NML_03
(PID.TID 0000.0001) > &
(PID.TID 0000.0001) >
(PID.TID 0000.0001) ># *********************
(PID.TID 0000.0001) > &EXF_NML_04
(PID.TID 0000.0001) > &
(PID.TID 0000.0001) 
(PID.TID 0000.0001) EXF_READPARMS: reading EXF_NML_01
(PID.TID 0000.0001) EXF_READPARMS: reading EXF_NML_02
(PID.TID 0000.0001) EXF_READPARMS: reading EXF_NML_03
(PID.TID 0000.0001) EXF_READPARMS: reading EXF_NML_04
(PID.TID 0000.0001) EXF_READPARMS: finished reading data.exf
(PID.TID 0000.0001) ECCO_READPARMS: opening data.ecco
(PID.TID 0000.0001)  OPEN_COPY_DATA_FILE: opening file data.ecco
(PID.TID 0000.0001) // =======================================================
(PID.TID 0000.0001) // Parameter file "data.ecco"
(PID.TID 0000.0001) // =======================================================
(PID.TID 0000.0001) >#
(PID.TID 0000.0001) >#
(PID.TID 0000.0001) ># ******************
(PID.TID 0000.0001) ># ECCO cost function
(PID.TID 0000.0001) ># ******************
(PID.TID 0000.0001) > &ECCO_COST_NML
(PID.TID 0000.0001) > data_errfile ='data.err',
(PID.TID 0000.0001) > tbarfile   = 'tbar',
(PID.TID 0000.0001) > sbarfile   = 'sbar',
(PID.TID 0000.0001) > psbarfile  = 'psbar',
(PID.TID 0000.0001) >#
(PID.TID 0000.0001) > topexstartdate1 = 19790101,
(PID.TID 0000.0001) > topexstartdate2 = 00000,
(PID.TID 0000.0001) > topexperiod     = 2635200.0,
(PID.TID 0000.0001) > topexfile       = 'labsea_TP_fields',
(PID.TID 0000.0001) > topexmeanfile   = 'labsea_TP_mean',
(PID.TID 0000.0001) >#
(PID.TID 0000.0001) > ersfile       = 'labsea_ERS_fields',
(PID.TID 0000.0001) > ersstartdate1 = 19790101,
(PID.TID 0000.0001) > ersstartdate2 = 00000,
(PID.TID 0000.0001) > ersperiod     = 2635200.0,
(PID.TID 0000.0001) >#
(PID.TID 0000.0001) > sststartdate1        = 19790101,
(PID.TID 0000.0001) > sststartdate2        = 00000,
(PID.TID 0000.0001) > sstdatfile           = 'labsea_SST_fields',
(PID.TID 0000.0001) > tdatfile             = 'labsea_Lev.ptmp',
(PID.TID 0000.0001) > sdatfile             = 'labsea_Lev.salt',
(PID.TID 0000.0001) > ssh_errfile          = 'labsea_ssh.err',
(PID.TID 0000.0001) > geoid_errfile        = 'labsea_geoid.err',
(PID.TID 0000.0001) > geoid_covariancefile = ' ',
(PID.TID 0000.0001) >#
(PID.TID 0000.0001) > hflux_errfile        = ' ',
(PID.TID 0000.0001) > sflux_errfile        = ' ',
(PID.TID 0000.0001) > tauu_errfile         = ' ',
(PID.TID 0000.0001) > tauv_errfile         = ' ',
(PID.TID 0000.0001) > atemp_errfile        = ' ',
(PID.TID 0000.0001) > aqh_errfile          = ' ',
(PID.TID 0000.0001) > precip_errfile       = ' ',
(PID.TID 0000.0001) > swflux_errfile       = ' ',
(PID.TID 0000.0001) > swdown_errfile       = ' ',
(PID.TID 0000.0001) > uwind_errfile        = ' ',
(PID.TID 0000.0001) > vwind_errfile        = ' ',
(PID.TID 0000.0001) >#
(PID.TID 0000.0001) > whflux0              = 20.,
(PID.TID 0000.0001) > wsflux0              = 3.0E-8,
(PID.TID 0000.0001) > wtau0                = 2.0E-2,
(PID.TID 0000.0001) > watemp0              = 0.5,
(PID.TID 0000.0001) > waqh0                = 5.E-4,
(PID.TID 0000.0001) > wprecip0             = 1.E-8,
(PID.TID 0000.0001) > wswflux0             = 20.,
(PID.TID 0000.0001) > wswdown0             = 20.,
(PID.TID 0000.0001) > wlwflux0             = 20.,
(PID.TID 0000.0001) > wlwdown0             = 20.,
(PID.TID 0000.0001) > wwind0               = 1.0,
(PID.TID 0000.0001) > wevap0               = 1.0,
(PID.TID 0000.0001) > wsnowprecip0         = 1.0,
(PID.TID 0000.0001) > wapressure0          = 1.0,
(PID.TID 0000.0001) >#
(PID.TID 0000.0001) > wmean_hflux          = 30.,
(PID.TID 0000.0001) > wmean_sflux          = 1.6E-8,
(PID.TID 0000.0001) > wmean_tau            = 0.1,
(PID.TID 0000.0001) > wmean_atemp          = 1.,
(PID.TID 0000.0001) > wmean_aqh            = 1.E-3,
(PID.TID 0000.0001) > wmean_precip         = 1.5E-8,
(PID.TID 0000.0001) > wmean_swflux         = 20.,
(PID.TID 0000.0001) > wmean_swdown         = 20.,
(PID.TID 0000.0001) > wmean_lwdown         = 20.,
(PID.TID 0000.0001) > wmean_lwflux         = 20.,
(PID.TID 0000.0001) > wmean_wind           = 2.0,
(PID.TID 0000.0001) > wmean_evap           = 1.0,
(PID.TID 0000.0001) > wmean_snowprecip     = 1.0,
(PID.TID 0000.0001) > wmean_apressure      = 1.0,
(PID.TID 0000.0001) >#
(PID.TID 0000.0001) > mult_hmean = 1.,
(PID.TID 0000.0001) > mult_h     = 1.,
(PID.TID 0000.0001) > mult_temp  = 1.,
(PID.TID 0000.0001) > mult_salt  = 1.,
(PID.TID 0000.0001) > mult_sst   = 1.,
(PID.TID 0000.0001) > mult_hflux = 0.,
(PID.TID 0000.0001) > mult_sflux = 0.,
(PID.TID 0000.0001) > mult_tauu  = 0.,
(PID.TID 0000.0001) > mult_tauv  = 0.,
(PID.TID 0000.0001) > mult_atemp = 0.,
(PID.TID 0000.0001) > mult_aqh   = 0.,
(PID.TID 0000.0001) > mult_precip= 0.,
(PID.TID 0000.0001) > mult_swflux= 0.,
(PID.TID 0000.0001) > mult_swdown= 0.,
(PID.TID 0000.0001) > mult_uwind = 0.,
(PID.TID 0000.0001) > mult_vwind = 0.,
(PID.TID 0000.0001) >#
(PID.TID 0000.0001) > cost_iprec  = 64,
(PID.TID 0000.0001) > cost_yftype = 'RL',
(PID.TID 0000.0001) > &
(PID.TID 0000.0001) 
(PID.TID 0000.0001) ECCO_READPARMS: finished reading #1: ecco_cost_nml
(PID.TID 0000.0001) ECCO_READPARMS: start assigning cost dates
(PID.TID 0000.0001) ECCO_READPARMS: end assigning cost dates
(PID.TID 0000.0001) ECCO_READPARMS: done
(PID.TID 0000.0001) SET_PARMS: done
(PID.TID 0000.0001) Enter INI_VERTICAL_GRID: setInterFDr=    T ; setCenterDr=    F
(PID.TID 0000.0001) %MON XC_max                       =   3.1900000000000E+02
(PID.TID 0000.0001) %MON XC_min                       =   2.8100000000000E+02
(PID.TID 0000.0001) %MON XC_mean                      =   3.0000000000000E+02
(PID.TID 0000.0001) %MON XC_sd                        =   1.1532562594671E+01
(PID.TID 0000.0001) %MON XG_max                       =   3.1800000000000E+02
(PID.TID 0000.0001) %MON XG_min                       =   2.8000000000000E+02
(PID.TID 0000.0001) %MON XG_mean                      =   2.9900000000000E+02
(PID.TID 0000.0001) %MON XG_sd                        =   1.1532562594671E+01
(PID.TID 0000.0001) %MON DXC_max                      =   1.5166951523772E+05
(PID.TID 0000.0001) %MON DXC_min                      =   5.0026831972764E+04
(PID.TID 0000.0001) %MON DXC_mean                     =   1.0305926321463E+05
(PID.TID 0000.0001) %MON DXC_sd                       =   3.1375805318756E+04
(PID.TID 0000.0001) %MON DXF_max                      =   1.5166951523772E+05
(PID.TID 0000.0001) %MON DXF_min                      =   5.0026831972764E+04
(PID.TID 0000.0001) %MON DXF_mean                     =   1.0305926321463E+05
(PID.TID 0000.0001) %MON DXF_sd                       =   3.1375805318756E+04
(PID.TID 0000.0001) %MON DXG_max                      =   1.5448497309243E+05
(PID.TID 0000.0001) %MON DXG_min                      =   5.3800974869835E+04
(PID.TID 0000.0001) %MON DXG_mean                     =   1.0642630187324E+05
(PID.TID 0000.0001) %MON DXG_sd                       =   3.1081829200899E+04
(PID.TID 0000.0001) %MON DXV_max                      =   1.5448497309243E+05
(PID.TID 0000.0001) %MON DXV_min                      =   5.3800974869835E+04
(PID.TID 0000.0001) %MON DXV_mean                     =   1.0642630187324E+05
(PID.TID 0000.0001) %MON DXV_sd                       =   3.1081829200899E+04
(PID.TID 0000.0001) %MON YC_max                       =   7.7000000000000E+01
(PID.TID 0000.0001) %MON YC_min                       =   4.7000000000000E+01
(PID.TID 0000.0001) %MON YC_mean                      =   6.2000000000000E+01
(PID.TID 0000.0001) %MON YC_sd                        =   9.2195444572929E+00
(PID.TID 0000.0001) %MON YG_max                       =   7.6000000000000E+01
(PID.TID 0000.0001) %MON YG_min                       =   4.6000000000000E+01
(PID.TID 0000.0001) %MON YG_mean                      =   6.1000000000000E+01
(PID.TID 0000.0001) %MON YG_sd                        =   9.2195444572929E+00
(PID.TID 0000.0001) %MON DYC_max                      =   2.2238985328912E+05
(PID.TID 0000.0001) %MON DYC_min                      =   2.2238985328912E+05
(PID.TID 0000.0001) %MON DYC_mean                     =   2.2238985328912E+05
(PID.TID 0000.0001) %MON DYC_sd                       =   1.4551915228367E-10
(PID.TID 0000.0001) %MON DYF_max                      =   2.2238985328912E+05
(PID.TID 0000.0001) %MON DYF_min                      =   2.2238985328912E+05
(PID.TID 0000.0001) %MON DYF_mean                     =   2.2238985328912E+05
(PID.TID 0000.0001) %MON DYF_sd                       =   1.4551915228367E-10
(PID.TID 0000.0001) %MON DYG_max                      =   2.2238985328912E+05
(PID.TID 0000.0001) %MON DYG_min                      =   2.2238985328912E+05
(PID.TID 0000.0001) %MON DYG_mean                     =   2.2238985328912E+05
(PID.TID 0000.0001) %MON DYG_sd                       =   1.4551915228367E-10
(PID.TID 0000.0001) %MON DYU_max                      =   2.2238985328912E+05
(PID.TID 0000.0001) %MON DYU_min                      =   2.2238985328912E+05
(PID.TID 0000.0001) %MON DYU_mean                     =   2.2238985328912E+05
(PID.TID 0000.0001) %MON DYU_sd                       =   1.4551915228367E-10
(PID.TID 0000.0001) %MON RA_max                       =   3.3728048822756E+10
(PID.TID 0000.0001) %MON RA_min                       =   1.1124894996734E+10
(PID.TID 0000.0001) %MON RA_mean                      =   2.2918170839356E+10
(PID.TID 0000.0001) %MON RA_sd                        =   6.9773064942263E+09
(PID.TID 0000.0001) %MON RAW_max                      =   3.3728048822756E+10
(PID.TID 0000.0001) %MON RAW_min                      =   1.1124894996734E+10
(PID.TID 0000.0001) %MON RAW_mean                     =   2.2918170839356E+10
(PID.TID 0000.0001) %MON RAW_sd                       =   6.9773064942263E+09
(PID.TID 0000.0001) %MON RAS_max                      =   3.4354146294179E+10
(PID.TID 0000.0001) %MON RAS_min                      =   1.1964183470077E+10
(PID.TID 0000.0001) %MON RAS_mean                     =   2.3666928057229E+10
(PID.TID 0000.0001) %MON RAS_sd                       =   6.9119325076329E+09
(PID.TID 0000.0001) %MON RAZ_max                      =   3.4354146294179E+10
(PID.TID 0000.0001) %MON RAZ_min                      =   1.1964183470077E+10
(PID.TID 0000.0001) %MON RAZ_mean                     =   2.3666928057229E+10
(PID.TID 0000.0001) %MON RAZ_sd                       =   6.9119325076329E+09
(PID.TID 0000.0001) %MON AngleCS_max                  =   1.0000000000000E+00
(PID.TID 0000.0001) %MON AngleCS_min                  =   1.0000000000000E+00
(PID.TID 0000.0001) %MON AngleCS_mean                 =   1.0000000000000E+00
(PID.TID 0000.0001) %MON AngleCS_sd                   =   0.0000000000000E+00
(PID.TID 0000.0001) %MON AngleSN_max                  =   0.0000000000000E+00
(PID.TID 0000.0001) %MON AngleSN_min                  =   0.0000000000000E+00
(PID.TID 0000.0001) %MON AngleSN_mean                 =   0.0000000000000E+00
(PID.TID 0000.0001) %MON AngleSN_sd                   =   0.0000000000000E+00
(PID.TID 0000.0001) // =======================================================
(PID.TID 0000.0001) // Field Model R_low (ini_masks_etc) at iteration          1
(PID.TID 0000.0001) // CMIN =         -4.200000000000000E+03
(PID.TID 0000.0001) // CMAX =         -5.500000000000000E+01
(PID.TID 0000.0001) // CINT =          1.535185185185185E+02
(PID.TID 0000.0001) // SYMBOLS (CMIN->CMAX): -abcdefghijklmnopqrstuvwxyz+
(PID.TID 0000.0001) //                  0.0: .
(PID.TID 0000.0001) // RANGE I (Lo:Hi:Step):(  -3:  24:   1)
(PID.TID 0000.0001) // RANGE J (Lo:Hi:Step):(  20:  -3:  -1)
(PID.TID 0000.0001) // RANGE K (Lo:Hi:Step):(   1:   1:   1)
(PID.TID 0000.0001) // =======================================================
(PID.TID 0000.0001) K =   1
(PID.TID 0000.0001) //                I=6       I=8       I=18
(PID.TID 0000.0001) // |--J--|321012345|789012347|901234567|901234
(PID.TID 0000.0001) //     20 cccg............zz......zzmgcccg....
(PID.TID 0000.0001) //     19 gcc-..........+.zz....+.zzxmgcc-....
(PID.TID 0000.0001) //     18 mjc-.......+zzz..z.+zzz..zzsmjc-....
(PID.TID 0000.0001) //     17 wwc-........++z+++..++z+++z+wwc-....
(PID.TID 0000.0001) //     16 .....zyyz........................zyy
(PID.TID 0000.0001) //     15 ....yxwwuspxyxz...pxyxz.........yxww
(PID.TID 0000.0001) //     14 .....+wwspppsxzz..ppsxzz.........+ww
(PID.TID 0000.0001) //     13 ........zwsppsyz..sppsyz............
(PID.TID 0000.0001) //     12 ..........+ypswzz++ypswzz+..........
(PID.TID 0000.0001) //     11 ............+wwy+...+wwy+...........
(PID.TID 0000.0001) //     10 ...........zzzywy+.zzzywy+..........
(PID.TID 0000.0001) //      9 ...z.......+zxsmmm.+zxsmmm+....z....
(PID.TID 0000.0001) //      8 z..s.....zzzxumjjjzzxumjjjjuz..s....
(PID.TID 0000.0001) //      7 jpmj......z.+zmjggz.+zmjggggjpmj....
(PID.TID 0000.0001) //      6 gggg.........zxmjg...zxmjggggggg....
(PID.TID 0000.0001) //      5 gggg..........zzsj....zzsjgggggg....
(PID.TID 0000.0001) //     12 ..........+ypswzz++ypswzz+..........
(PID.TID 0000.0001) //     11 ............+wwy+...+wwy+...........
(PID.TID 0000.0001) //     10 ...........zzzywy+.zzzywy+..........
(PID.TID 0000.0001) //      9 ...z.......+zxsmmm.+zxsmmm+....z....
(PID.TID 0000.0001) //      8 z..s.....zzzxumjjjzzxumjjjjuz..s....
(PID.TID 0000.0001) //      7 jpmj......z.+zmjggz.+zmjggggjpmj....
(PID.TID 0000.0001) //      6 gggg.........zxmjg...zxmjggggggg....
(PID.TID 0000.0001) //      5 gggg..........zzsj....zzsjgggggg....
(PID.TID 0000.0001) //      4 cccg............zz......zzmgcccg....
(PID.TID 0000.0001) //      3 gcc-..........+.zz....+.zzxmgcc-....
(PID.TID 0000.0001) //      2 mjc-.......+zzz..z.+zzz..zzsmjc-....
(PID.TID 0000.0001) //      1 wwc-........++z+++..++z+++z+wwc-....
(PID.TID 0000.0001) //      0 .....zyyz........................zyy
(PID.TID 0000.0001) //     -1 ....yxwwuspxyxz...pxyxz.........yxww
(PID.TID 0000.0001) //     -2 .....+wwspppsxzz..ppsxzz.........+ww
(PID.TID 0000.0001) //     -3 ........zwsppsyz..sppsyz............
(PID.TID 0000.0001) // =======================================================
(PID.TID 0000.0001) // END OF FIELD                                          =
(PID.TID 0000.0001) // =======================================================
(PID.TID 0000.0001) 
(PID.TID 0000.0001) // =======================================================
(PID.TID 0000.0001) // Field Model Ro_surf (ini_masks_etc) at iteration          1
(PID.TID 0000.0001) // CMIN =          1.000000000000000E+32
(PID.TID 0000.0001) // CMAX =         -1.000000000000000E+32
(PID.TID 0000.0001) // CINT =          0.000000000000000E+00
(PID.TID 0000.0001) // SYMBOLS (CMIN->CMAX): -abcdefghijklmnopqrstuvwxyz+
(PID.TID 0000.0001) //                  0.0: .
(PID.TID 0000.0001) // RANGE I (Lo:Hi:Step):(  -3:  24:   1)
(PID.TID 0000.0001) // RANGE J (Lo:Hi:Step):(  20:  -3:  -1)
(PID.TID 0000.0001) // RANGE K (Lo:Hi:Step):(   1:   1:   1)
(PID.TID 0000.0001) // =======================================================
(PID.TID 0000.0001) // =======================================================
(PID.TID 0000.0001) // END OF FIELD                                          =
(PID.TID 0000.0001) // =======================================================
(PID.TID 0000.0001) 
(PID.TID 0000.0001) // =======================================================
(PID.TID 0000.0001) // Field hFacC at iteration          1
(PID.TID 0000.0001) // CMIN =          1.000000000000000E+00
(PID.TID 0000.0001) // CMAX =          1.000000000000000E+00
(PID.TID 0000.0001) // CINT =          0.000000000000000E+00
(PID.TID 0000.0001) // SYMBOLS (CMIN->CMAX): -abcdefghijklmnopqrstuvwxyz+
(PID.TID 0000.0001) //                  0.0: .
(PID.TID 0000.0001) // RANGE I (Lo:Hi:Step):(  -3:  24:   1)
(PID.TID 0000.0001) // RANGE J (Lo:Hi:Step):(  20:  -3:  -1)
(PID.TID 0000.0001) // RANGE K (Lo:Hi:Step):(   1:   1:   1)
(PID.TID 0000.0001) // =======================================================
(PID.TID 0000.0001) // =======================================================
(PID.TID 0000.0001) // END OF FIELD                                          =
(PID.TID 0000.0001) // =======================================================
(PID.TID 0000.0001) 
(PID.TID 0000.0001) // =======================================================
(PID.TID 0000.0001) // Field hFacW at iteration          1
(PID.TID 0000.0001) // CMIN =          1.000000000000000E+00
(PID.TID 0000.0001) // CMAX =          1.000000000000000E+00
(PID.TID 0000.0001) // CINT =          0.000000000000000E+00
(PID.TID 0000.0001) // SYMBOLS (CMIN->CMAX): -abcdefghijklmnopqrstuvwxyz+
(PID.TID 0000.0001) //                  0.0: .
(PID.TID 0000.0001) // RANGE I (Lo:Hi:Step):(  -3:  24:   1)
(PID.TID 0000.0001) // RANGE J (Lo:Hi:Step):(  20:  -3:  -1)
(PID.TID 0000.0001) // RANGE K (Lo:Hi:Step):(   1:   1:   1)
(PID.TID 0000.0001) // =======================================================
(PID.TID 0000.0001) // =======================================================
(PID.TID 0000.0001) // END OF FIELD                                          =
(PID.TID 0000.0001) // =======================================================
(PID.TID 0000.0001) 
(PID.TID 0000.0001) // =======================================================
(PID.TID 0000.0001) // Field hFacS at iteration          1
(PID.TID 0000.0001) // CMIN =          1.000000000000000E+00
(PID.TID 0000.0001) // CMAX =          1.000000000000000E+00
(PID.TID 0000.0001) // CINT =          0.000000000000000E+00
(PID.TID 0000.0001) // SYMBOLS (CMIN->CMAX): -abcdefghijklmnopqrstuvwxyz+
(PID.TID 0000.0001) //                  0.0: .
(PID.TID 0000.0001) // RANGE I (Lo:Hi:Step):(  -3:  24:   1)
(PID.TID 0000.0001) // RANGE J (Lo:Hi:Step):(  20:  -3:  -1)
(PID.TID 0000.0001) // RANGE K (Lo:Hi:Step):(   1:   1:   1)
(PID.TID 0000.0001) // =======================================================
(PID.TID 0000.0001) // =======================================================
(PID.TID 0000.0001) // END OF FIELD                                          =
(PID.TID 0000.0001) // =======================================================
(PID.TID 0000.0001) 
(PID.TID 0000.0001) 
(PID.TID 0000.0001) // ===================================
(PID.TID 0000.0001) // GAD parameters :
(PID.TID 0000.0001) // ===================================
(PID.TID 0000.0001) tempAdvScheme =   /* Temp. Horiz.Advection scheme selector */
(PID.TID 0000.0001)                      30
(PID.TID 0000.0001)     ;
(PID.TID 0000.0001) tempVertAdvScheme =   /* Temp. Vert. Advection scheme selector */
(PID.TID 0000.0001)                      30
(PID.TID 0000.0001)     ;
(PID.TID 0000.0001) tempMultiDimAdvec =   /* use Muti-Dim Advec method for Temp */
(PID.TID 0000.0001)                   T
(PID.TID 0000.0001)     ;
(PID.TID 0000.0001) tempSOM_Advection = /* use 2nd Order Moment Advection for Temp */
(PID.TID 0000.0001)                   F
(PID.TID 0000.0001)     ;
(PID.TID 0000.0001) AdamsBashforthGt = /* apply Adams-Bashforth extrapolation on Gt */
(PID.TID 0000.0001)                   F
(PID.TID 0000.0001)     ;
(PID.TID 0000.0001) AdamsBashforth_T = /* apply Adams-Bashforth extrapolation on Temp */
(PID.TID 0000.0001)                   F
(PID.TID 0000.0001)     ;
(PID.TID 0000.0001) saltAdvScheme =   /* Salt. Horiz.advection scheme selector */
(PID.TID 0000.0001)                      30
(PID.TID 0000.0001)     ;
(PID.TID 0000.0001) saltVertAdvScheme =   /* Salt. Vert. Advection scheme selector */
(PID.TID 0000.0001)                      30
(PID.TID 0000.0001)     ;
(PID.TID 0000.0001) saltMultiDimAdvec =   /* use Muti-Dim Advec method for Salt */
(PID.TID 0000.0001)                   T
(PID.TID 0000.0001)     ;
(PID.TID 0000.0001) saltSOM_Advection = /* use 2nd Order Moment Advection for Salt */
(PID.TID 0000.0001)                   F
(PID.TID 0000.0001)     ;
(PID.TID 0000.0001) AdamsBashforthGs = /* apply Adams-Bashforth extrapolation on Gs */
(PID.TID 0000.0001)                   F
(PID.TID 0000.0001)     ;
(PID.TID 0000.0001) AdamsBashforth_S = /* apply Adams-Bashforth extrapolation on Salt */
(PID.TID 0000.0001)                   F
(PID.TID 0000.0001)     ;
(PID.TID 0000.0001) // ===================================
(PID.TID 0000.0001) 
(PID.TID 0000.0001) // =======================================================
(PID.TID 0000.0001) // External forcing configuration >>> START <<<
(PID.TID 0000.0001) // =======================================================
(PID.TID 0000.0001) 
(PID.TID 0000.0001)  EXF general parameters:
(PID.TID 0000.0001) 
(PID.TID 0000.0001) exf_yftype =  /* ? */
(PID.TID 0000.0001)               'RL'
(PID.TID 0000.0001)     ;
(PID.TID 0000.0001) exf_iprec = /* exf file precision */
(PID.TID 0000.0001)                      32
(PID.TID 0000.0001)     ;
(PID.TID 0000.0001) useExfYearlyFields = /* add extension _YEAR to input file names */
(PID.TID 0000.0001)                   F
(PID.TID 0000.0001)     ;
(PID.TID 0000.0001) twoDigitYear = /* use 2-digit year extension */
(PID.TID 0000.0001)                   F
(PID.TID 0000.0001)     ;
(PID.TID 0000.0001) useExfCheckRange = /* check for fields range */
(PID.TID 0000.0001)                   T
(PID.TID 0000.0001)     ;
(PID.TID 0000.0001) exf_monFreq = /* EXF monitor frequency [ s ] */
(PID.TID 0000.0001)                 1.000000000000000E+00
(PID.TID 0000.0001)     ;
(PID.TID 0000.0001) repeatPeriod = /* period for cycling forcing dataset [ s ] */
(PID.TID 0000.0001)                 3.162240000000000E+07
(PID.TID 0000.0001)     ;
(PID.TID 0000.0001) climTempFreeze= /* Minimum climatological temperature [deg.C] */
(PID.TID 0000.0001)                -1.900000000000000E+00
(PID.TID 0000.0001)     ;
(PID.TID 0000.0001) windStressMax = /* Maximum absolute windstress [ Pa ] */
(PID.TID 0000.0001)                 2.000000000000000E+00
(PID.TID 0000.0001)     ;
(PID.TID 0000.0001) stressIsOnCgrid = /* set u,v_stress on Arakawa C-grid */
(PID.TID 0000.0001)                   F
(PID.TID 0000.0001)     ;
(PID.TID 0000.0001) cen2kel = /* conversion of deg. Centigrade to Kelvin [K] */
(PID.TID 0000.0001)                 2.731500000000000E+02
(PID.TID 0000.0001)     ;
(PID.TID 0000.0001) gravity_mks= /* gravitational acceleration [m/s^2] */
(PID.TID 0000.0001)                 9.810000000000000E+00
(PID.TID 0000.0001)     ;
(PID.TID 0000.0001) atmrho =  /* mean atmospheric density [kg/m^3] */
(PID.TID 0000.0001)                 1.200000000000000E+00
(PID.TID 0000.0001)     ;
(PID.TID 0000.0001) atmcp =  /* mean atmospheric specific heat [J/kg/K] */
(PID.TID 0000.0001)                 1.005000000000000E+03
(PID.TID 0000.0001)     ;
(PID.TID 0000.0001) flamb =  /* latent heat of evaporation [J/kg] */
(PID.TID 0000.0001)                 2.500000000000000E+06
(PID.TID 0000.0001)     ;
(PID.TID 0000.0001) flami =  /* latent heat of pure-ice melting [J/kg] */
(PID.TID 0000.0001)                 3.340000000000000E+05
(PID.TID 0000.0001)     ;
(PID.TID 0000.0001) cvapor_fac = /* const. for Saturation calculation [?] */
(PID.TID 0000.0001)                 6.403800000000000E+05
(PID.TID 0000.0001)     ;
(PID.TID 0000.0001) cvapor_exp = /* const. for Saturation calculation [?] */
(PID.TID 0000.0001)                 5.107400000000000E+03
(PID.TID 0000.0001)     ;
(PID.TID 0000.0001) cvapor_fac_ice= /* const. for Saturation calculation [?] */
(PID.TID 0000.0001)                 1.163780000000000E+07
(PID.TID 0000.0001)     ;
(PID.TID 0000.0001) cvapor_exp_ice= /* const. for Saturation calculation [?] */
(PID.TID 0000.0001)                 5.897800000000000E+03
(PID.TID 0000.0001)     ;
(PID.TID 0000.0001) humid_fac = /* humidity coef. in virtual temp. [(kg/kg)^-1] */
(PID.TID 0000.0001)                 6.060000000000000E-01
(PID.TID 0000.0001)     ;
(PID.TID 0000.0001) gamma_blk = /* adiabatic lapse rate [?] */
(PID.TID 0000.0001)                 1.000000000000000E-02
(PID.TID 0000.0001)     ;
(PID.TID 0000.0001) saltsat = /* reduction of Qsat over salty water [-] */
(PID.TID 0000.0001)                 9.800000000000000E-01
(PID.TID 0000.0001)     ;
(PID.TID 0000.0001) noNegativeEvap = /* prevent negative Evaporation */
(PID.TID 0000.0001)                   F
(PID.TID 0000.0001)     ;
(PID.TID 0000.0001) sstExtrapol = /* extrapolation coeff from lev. 1 & 2 to surf [-] */
(PID.TID 0000.0001)                 0.000000000000000E+00
(PID.TID 0000.0001)     ;
(PID.TID 0000.0001) cDrag_1 = /* coef used in drag calculation [?] */
(PID.TID 0000.0001)                 2.700000000000000E-03
(PID.TID 0000.0001)     ;
(PID.TID 0000.0001) cDrag_2 = /* coef used in drag calculation [?] */
(PID.TID 0000.0001)                 1.420000000000000E-04
(PID.TID 0000.0001)     ;
(PID.TID 0000.0001) cDrag_3 = /* coef used in drag calculation [?] */
(PID.TID 0000.0001)                 7.640000000000000E-05
[...]
 --> f_drifter   = 0.000000000000000E+00
 --> f_tdrift  = 0.000000000000000E+00
 --> f_sdrift  = 0.000000000000000E+00
 --> f_wdrift  = 0.000000000000000E+00
 --> f_scatx   = 0.000000000000000E+00
 --> f_scaty   = 0.000000000000000E+00
 --> f_scatxm  = 0.000000000000000E+00
 --> f_scatym  = 0.000000000000000E+00
 --> f_obcsn   = 0.000000000000000E+00
 --> f_obcss   = 0.000000000000000E+00
 --> f_obcsw   = 0.000000000000000E+00
 --> f_obcse   = 0.000000000000000E+00
 --> f_ageos   = 0.000000000000000E+00
 --> f_curmtr  = 0.000000000000000E+00
 --> f_kapgm   = 0.000000000000000E+00
 --> f_kapredi   = 0.000000000000000E+00
 --> f_diffkr  = 0.000000000000000E+00
 --> f_eddytau = 0.000000000000000E+00
 --> f_bottomdrag = 0.000000000000000E+00
 --> f_hfluxmm2           = 0.000000000000000E+00
 --> f_sfluxmm2           = 0.000000000000000E+00
 --> f_transp             = 0.000000000000000E+00
 --> objf_hmean           = 0.505594931539241E-01
 --> fc               = 0.700385048678213E+04
(PID.TID 0000.0001)  MDS_READ_FIELD: opening file: xx_atemp.0000000000.001.001.data
(PID.TID 0000.0001)  MDS_READ_FIELD: opening file: xx_atemp.0000000000.002.001.data
(PID.TID 0000.0001)  MDS_READ_FIELD: opening file: xx_atemp.0000000000.001.002.data
(PID.TID 0000.0001)  MDS_READ_FIELD: opening file: xx_atemp.0000000000.002.002.data
grad-res -------------------------------
 grad-res     0    5   10    8    1    1    1    1   0.700385048683E+04 0.700385048688E+04 0.700385048678E+04
 grad-res     0    5    5   14   14    1    1    1   0.503204079125E-03 0.503191586176E-03 0.248268030804E-04
(PID.TID 0000.0001)   ADM  precision_derivative_cost =    7.00385048683245E+03
(PID.TID 0000.0001)   ADM  precision_derivative_grad =    5.03204079124981E-04
 ph-grd  ierr ---------------------------
 ph-grd  ierr =  0, icomp =  14, ichknum =  5
(PID.TID 0000.0001) 
(PID.TID 0000.0001) // =======================================================
(PID.TID 0000.0001) // Gradient check results  >>> START <<<
(PID.TID 0000.0001) // =======================================================
(PID.TID 0000.0001) 
(PID.TID 0000.0001) 
(PID.TID 0000.0001)  EPS =  0.100E-03
(PID.TID 0000.0001) grdchk output:            procId               I        ITILEPOS        JTILEPOS           LAYER            X(I)      X(I)+/-EPS
(PID.TID 0000.0001) grdchk output:                                FC             FC1             FC2 FC1-FC2/(2*EPS)    ADJ GRAD(FC)   1-FDGRD/ADGRD
(PID.TID 0000.0001) grdchk output:                 0               1               6               8               1 0.000000000E+00 -.100000000E-03
(PID.TID 0000.0001) grdchk output:                   0.700385049E+04 0.700385049E+04 0.700385049E+04 0.239524525E-03 0.239520355E-03 -.174091942E-04
(PID.TID 0000.0001) 
(PID.TID 0000.0001) grdchk output:                 0               2               7               8               1 0.000000000E+00 -.100000000E-03
(PID.TID 0000.0001) grdchk output:                   0.700385049E+04 0.700385049E+04 0.700385049E+04 0.232098500E-03 0.232096519E-03 -.853515771E-05
(PID.TID 0000.0001) 
(PID.TID 0000.0001) grdchk output:                 0               3               8               8               1 0.000000000E+00 -.100000000E-03
(PID.TID 0000.0001) grdchk output:                   0.700385049E+04 0.700385049E+04 0.700385049E+04 0.302470653E-03 0.302477244E-03 0.217915105E-04
(PID.TID 0000.0001) 
(PID.TID 0000.0001) grdchk output:                 0               4               9               8               1 0.000000000E+00 -.100000000E-03
(PID.TID 0000.0001) grdchk output:                   0.700385049E+04 0.700385049E+04 0.700385049E+04 0.395871211E-03 0.395871650E-03 0.110882859E-05
(PID.TID 0000.0001) 
(PID.TID 0000.0001) grdchk output:                 0               5              10               8               1 0.000000000E+00 -.100000000E-03
(PID.TID 0000.0001) grdchk output:                   0.700385049E+04 0.700385049E+04 0.700385049E+04 0.503191586E-03 0.503204079E-03 0.248268031E-04
(PID.TID 0000.0001) 
(PID.TID 0000.0001) 
(PID.TID 0000.0001) // =======================================================
(PID.TID 0000.0001) // Gradient check results  >>> END <<<
(PID.TID 0000.0001) // =======================================================
(PID.TID 0000.0001) 
(PID.TID 0000.0001)   Seconds in section "ALL                    [THE_MODEL_MAIN]":
(PID.TID 0000.0001)           User time:  54.2127597
(PID.TID 0000.0001)         System time:  2.02169306
(PID.TID 0000.0001)     Wall clock time:  145.865607
(PID.TID 0000.0001)          No. starts: 1
(PID.TID 0000.0001)           No. stops: 1
(PID.TID 0000.0001)   Seconds in section "INITIALISE_FIXED       [THE_MODEL_MAIN]":
(PID.TID 0000.0001)           User time:  2.52761602
(PID.TID 0000.0001)         System time:  0.168974005
(PID.TID 0000.0001)     Wall clock time:  5.96476102
(PID.TID 0000.0001)          No. starts: 1
(PID.TID 0000.0001)           No. stops: 1
(PID.TID 0000.0001)   Seconds in section "ADTHE_MAIN_LOOP          [ADJOINT RUN]":
(PID.TID 0000.0001)           User time:  25.6560986
(PID.TID 0000.0001)         System time:  1.32579897
(PID.TID 0000.0001)     Wall clock time:  93.2116539
(PID.TID 0000.0001)          No. starts: 1
(PID.TID 0000.0001)           No. stops: 1
(PID.TID 0000.0001)   Seconds in section "EXF_GETFORCING     [LOAD_FLDS_DRIVER]":
(PID.TID 0000.0001)           User time:  0.513922691
(PID.TID 0000.0001)         System time:  0.0789918005
(PID.TID 0000.0001)     Wall clock time:  1.39718723
(PID.TID 0000.0001)          No. starts: 52
(PID.TID 0000.0001)           No. stops: 52
(PID.TID 0000.0001)   Seconds in section "I/O (WRITE)        [ADJOINT LOOP]":
(PID.TID 0000.0001)           User time:  1.69774389
(PID.TID 0000.0001)         System time:  0.215968907
(PID.TID 0000.0001)     Wall clock time:  27.3594346
(PID.TID 0000.0001)          No. starts: 264
(PID.TID 0000.0001)           No. stops: 264
(PID.TID 0000.0001)   Seconds in section "SEAICE_MODEL    [DO_OCEANIC_PHYS]":
(PID.TID 0000.0001)           User time:  2.83856988
(PID.TID 0000.0001)         System time:  0.0199992061
(PID.TID 0000.0001)     Wall clock time:  5.36237597
(PID.TID 0000.0001)          No. starts: 52
(PID.TID 0000.0001)           No. stops: 52
(PID.TID 0000.0001)   Seconds in section "SEAICE_DYNSOLVER   [SEAICE_MODEL]":
(PID.TID 0000.0001)           User time:  2.20564747
(PID.TID 0000.0001)         System time:  0.012999177
(PID.TID 0000.0001)     Wall clock time:  3.77685189
(PID.TID 0000.0001)          No. starts: 52
(PID.TID 0000.0001)           No. stops: 52
(PID.TID 0000.0001)   Seconds in section "KPP_CALC [DO_OCEANIC_PHYS]":
(PID.TID 0000.0001)           User time:  7.09690237
(PID.TID 0000.0001)         System time:  0.056989938
(PID.TID 0000.0001)     Wall clock time:  12.649745
(PID.TID 0000.0001)          No. starts: 208
(PID.TID 0000.0001)           No. stops: 208
(PID.TID 0000.0001)   Seconds in section "CTRL_PACK           [THE_MODEL_MAIN]":
(PID.TID 0000.0001)           User time:  0.065990448
(PID.TID 0000.0001)         System time:  0.0269960165
(PID.TID 0000.0001)     Wall clock time:  0.191989183
(PID.TID 0000.0001)          No. starts: 1
(PID.TID 0000.0001)           No. stops: 1
(PID.TID 0000.0001)   Seconds in section "CTRL_PACK     [THE_MODEL_MAIN]":
(PID.TID 0000.0001)           User time:  0.0549926758
(PID.TID 0000.0001)         System time:  0.0289950371
(PID.TID 0000.0001)     Wall clock time:  0.114830017
(PID.TID 0000.0001)          No. starts: 1
(PID.TID 0000.0001)           No. stops: 1
(PID.TID 0000.0001)   Seconds in section "GRDCHK_MAIN         [THE_MODEL_MAIN]":
(PID.TID 0000.0001)           User time:  25.8930626
(PID.TID 0000.0001)         System time:  0.469928861
(PID.TID 0000.0001)     Wall clock time:  46.3676381
(PID.TID 0000.0001)          No. starts: 1
(PID.TID 0000.0001)           No. stops: 1
(PID.TID 0000.0001)   Seconds in section "ECCO SPIN-UP":
(PID.TID 0000.0001)           User time:  1.88571548
(PID.TID 0000.0001)         System time:  0.0639888048
(PID.TID 0000.0001)     Wall clock time:  3.38897395
(PID.TID 0000.0001)          No. starts: 10
(PID.TID 0000.0001)           No. stops: 10
(PID.TID 0000.0001)   Seconds in section "INITIALISE_VARIA    [THE_MAIN_LOOP]":
(PID.TID 0000.0001)           User time:  1.88471603
(PID.TID 0000.0001)         System time:  0.0639888048
(PID.TID 0000.0001)     Wall clock time:  3.38648272
(PID.TID 0000.0001)          No. starts: 10
(PID.TID 0000.0001)           No. stops: 10
(PID.TID 0000.0001)   Seconds in section "ECCO MAIN LOOP":
(PID.TID 0000.0001)           User time:  23.2284679
(PID.TID 0000.0001)         System time:  0.212967992
(PID.TID 0000.0001)     Wall clock time:  37.7030022
(PID.TID 0000.0001)          No. starts: 10
(PID.TID 0000.0001)           No. stops: 10
(PID.TID 0000.0001)   Seconds in section "COST_AVERAGESFIELDS   [ECCO MAIN]":
(PID.TID 0000.0001)           User time:  0.03399086
(PID.TID 0000.0001)         System time:  0.00100004673
(PID.TID 0000.0001)     Wall clock time:  0.0489404202
(PID.TID 0000.0001)          No. starts: 40
(PID.TID 0000.0001)           No. stops: 40
(PID.TID 0000.0001)   Seconds in section "LOAD_FIELDS_DRIVER  [FORWARD_STEP]":
(PID.TID 0000.0001)           User time:  0.388938904
(PID.TID 0000.0001)         System time:  0.0559928417
(PID.TID 0000.0001)     Wall clock time:  0.710130453
(PID.TID 0000.0001)          No. starts: 40
(PID.TID 0000.0001)           No. stops: 40
(PID.TID 0000.0001)   Seconds in section "DO_ATMOSPHERIC_PHYS [FORWARD_STEP]":
(PID.TID 0000.0001)           User time:  0.00200271606
(PID.TID 0000.0001)         System time:  0.
(PID.TID 0000.0001)     Wall clock time:  0.00162863731
(PID.TID 0000.0001)          No. starts: 40
(PID.TID 0000.0001)           No. stops: 40
(PID.TID 0000.0001)   Seconds in section "DO_OCEANIC_PHYS     [FORWARD_STEP]":
(PID.TID 0000.0001)           User time:  10.7503548
(PID.TID 0000.0001)         System time:  0.0509928465
(PID.TID 0000.0001)     Wall clock time:  17.242075
(PID.TID 0000.0001)          No. starts: 40
(PID.TID 0000.0001)           No. stops: 40
(PID.TID 0000.0001)   Seconds in section "DYNAMICS            [FORWARD_STEP]":
(PID.TID 0000.0001)           User time:  4.23735237
(PID.TID 0000.0001)         System time:  0.012999177
(PID.TID 0000.0001)     Wall clock time:  7.01682353
(PID.TID 0000.0001)          No. starts: 40
(PID.TID 0000.0001)           No. stops: 40
(PID.TID 0000.0001)   Seconds in section "SOLVE_FOR_PRESSURE  [FORWARD_STEP]":
(PID.TID 0000.0001)           User time:  0.416942596
(PID.TID 0000.0001)         System time:  0.
(PID.TID 0000.0001)     Wall clock time:  0.631087065
(PID.TID 0000.0001)          No. starts: 40
(PID.TID 0000.0001)           No. stops: 40
(PID.TID 0000.0001)   Seconds in section "UV_CORRECTION_STEP  [FORWARD_STEP]":
(PID.TID 0000.0001)           User time:  0.157987595
(PID.TID 0000.0001)         System time:  0.0039999485
(PID.TID 0000.0001)     Wall clock time:  0.162824869
(PID.TID 0000.0001)          No. starts: 40
(PID.TID 0000.0001)           No. stops: 40
(PID.TID 0000.0001)   Seconds in section "BLOCKING_EXCHANGES  [FORWARD_STEP]":
(PID.TID 0000.0001)           User time:  0.358934402
(PID.TID 0000.0001)         System time:  0.
(PID.TID 0000.0001)     Wall clock time:  0.49916029
(PID.TID 0000.0001)          No. starts: 80
(PID.TID 0000.0001)           No. stops: 80
(PID.TID 0000.0001)   Seconds in section "THERMODYNAMICS      [FORWARD_STEP]":
(PID.TID 0000.0001)           User time:  5.26521111
(PID.TID 0000.0001)         System time:  0.0389921665
(PID.TID 0000.0001)     Wall clock time:  8.5059042
(PID.TID 0000.0001)          No. starts: 40
(PID.TID 0000.0001)           No. stops: 40
(PID.TID 0000.0001)   Seconds in section "TS_CORRECTION_STEP  [FORWARD_STEP]":
(PID.TID 0000.0001)           User time:  0.0679798126
(PID.TID 0000.0001)         System time:  0.
(PID.TID 0000.0001)     Wall clock time:  0.0677690506
(PID.TID 0000.0001)          No. starts: 40
(PID.TID 0000.0001)           No. stops: 40
(PID.TID 0000.0001)   Seconds in section "DO_STATEVARS_TAVE   [FORWARD_STEP]":
(PID.TID 0000.0001)           User time:  0.
(PID.TID 0000.0001)         System time:  0.00100004673
(PID.TID 0000.0001)     Wall clock time:  0.00162410736
(PID.TID 0000.0001)          No. starts: 40
(PID.TID 0000.0001)           No. stops: 40
(PID.TID 0000.0001)   Seconds in section "MONITOR             [FORWARD_STEP]":
(PID.TID 0000.0001)           User time:  0.00199890137
(PID.TID 0000.0001)         System time:  0.
(PID.TID 0000.0001)     Wall clock time:  0.00162291527
(PID.TID 0000.0001)          No. starts: 40
(PID.TID 0000.0001)           No. stops: 40
(PID.TID 0000.0001)   Seconds in section "DO_THE_MODEL_IO     [FORWARD_STEP]":
(PID.TID 0000.0001)           User time:  0.963863373
(PID.TID 0000.0001)         System time:  0.0419917107
(PID.TID 0000.0001)     Wall clock time:  1.75877237
(PID.TID 0000.0001)          No. starts: 40
(PID.TID 0000.0001)           No. stops: 40
(PID.TID 0000.0001)   Seconds in section "DO_WRITE_PICKUP     [FORWARD_STEP]":
(PID.TID 0000.0001)           User time:  0.
(PID.TID 0000.0001)         System time:  0.
(PID.TID 0000.0001)     Wall clock time:  0.00175499916
(PID.TID 0000.0001)          No. starts: 40
(PID.TID 0000.0001)           No. stops: 40
(PID.TID 0000.0001)   Seconds in section "ECCO SPIN-DOWN":
(PID.TID 0000.0001)           User time:  0.744876862
(PID.TID 0000.0001)         System time:  0.181974292
(PID.TID 0000.0001)     Wall clock time:  1.61813688
(PID.TID 0000.0001)          No. starts: 10
(PID.TID 0000.0001)           No. stops: 10
(PID.TID 0000.0001)   Seconds in section "COST_AVERAGESFIELDS [ECCO SPIN-DOWN]":
(PID.TID 0000.0001)           User time:  0.0819892883
(PID.TID 0000.0001)         System time:  0.0279971361
(PID.TID 0000.0001)     Wall clock time:  0.109532118
(PID.TID 0000.0001)          No. starts: 10
(PID.TID 0000.0001)           No. stops: 10
(PID.TID 0000.0001)   Seconds in section "COST_FORCING       [ECCO SPIN-DOWN]":
(PID.TID 0000.0001)           User time:  0.151973724
(PID.TID 0000.0001)         System time:  0.0579909086
(PID.TID 0000.0001)     Wall clock time:  0.485316992
(PID.TID 0000.0001)          No. starts: 10
(PID.TID 0000.0001)           No. stops: 10
(PID.TID 0000.0001)   Seconds in section "COST_SSH           [ECCO SPIN-DOWN]":
(PID.TID 0000.0001)           User time:  0.0189933777
(PID.TID 0000.0001)         System time:  0.014998436
(PID.TID 0000.0001)     Wall clock time:  0.0324454308
(PID.TID 0000.0001)          No. starts: 10
(PID.TID 0000.0001)           No. stops: 10
(PID.TID 0000.0001)   Seconds in section "COST_HYD           [ECCO SPIN-DOWN]":
(PID.TID 0000.0001)           User time:  0.476928711
(PID.TID 0000.0001)         System time:  0.0769879818
(PID.TID 0000.0001)     Wall clock time:  0.791361809
(PID.TID 0000.0001)          No. starts: 10
(PID.TID 0000.0001)           No. stops: 10
(PID.TID 0000.0001)   Seconds in section "SEAICE_COST_DRIVER [ECCO SPIN-DOWN]":
(PID.TID 0000.0001)           User time:  0.00199890137
(PID.TID 0000.0001)         System time:  0.
(PID.TID 0000.0001)     Wall clock time:  0.00165700912
(PID.TID 0000.0001)          No. starts: 10
(PID.TID 0000.0001)           No. stops: 10
(PID.TID 0000.0001)   Seconds in section "COST_INTERNAL_PARAMS  [ECCO SPIN-DOWN]":
(PID.TID 0000.0001)           User time:  0.
(PID.TID 0000.0001)         System time:  0.
(PID.TID 0000.0001)     Wall clock time:  0.000387430191
(PID.TID 0000.0001)          No. starts: 10
(PID.TID 0000.0001)           No. stops: 10
(PID.TID 0000.0001)   Seconds in section "COST_GENCOST_ALL    [ECCO SPIN-DOWN]":
(PID.TID 0000.0001)           User time:  0.000999450684
(PID.TID 0000.0001)         System time:  0.
(PID.TID 0000.0001)     Wall clock time:  0.00039768219
(PID.TID 0000.0001)          No. starts: 10
(PID.TID 0000.0001)           No. stops: 10
(PID.TID 0000.0001)   Seconds in section "COST_USERCOST_ALL    [ECCO SPIN-DOWN]":
(PID.TID 0000.0001)           User time:  0.000999450684
(PID.TID 0000.0001)         System time:  0.
(PID.TID 0000.0001)     Wall clock time:  0.000393867493
(PID.TID 0000.0001)          No. starts: 10
(PID.TID 0000.0001)           No. stops: 10
(PID.TID 0000.0001)   Seconds in section "COST_FINAL         [ECCO SPIN-DOWN]":
(PID.TID 0000.0001)           User time:  0.0089969635
(PID.TID 0000.0001)         System time:  0.00399982929
(PID.TID 0000.0001)     Wall clock time:  0.0646643639
(PID.TID 0000.0001)          No. starts: 10
(PID.TID 0000.0001)           No. stops: 10
(PID.TID 0000.0001) // ======================================================
(PID.TID 0000.0001) // Tile <-> Tile communication statistics
(PID.TID 0000.0001) // ======================================================
(PID.TID 0000.0001) // o Tile number: 000001
(PID.TID 0000.0001) //         No. X exchanges =              0
(PID.TID 0000.0001) //            Max. X spins =              0
(PID.TID 0000.0001) //            Min. X spins =     1000000000
(PID.TID 0000.0001) //          Total. X spins =              0
(PID.TID 0000.0001) //            Avg. X spins =       0.00E+00
(PID.TID 0000.0001) //         No. Y exchanges =              0
(PID.TID 0000.0001) //            Max. Y spins =              0
(PID.TID 0000.0001) //            Min. Y spins =     1000000000
(PID.TID 0000.0001) //          Total. Y spins =              0
(PID.TID 0000.0001) //            Avg. Y spins =       0.00E+00
(PID.TID 0000.0001) // o Tile number: 000002
(PID.TID 0000.0001) //         No. X exchanges =              0
(PID.TID 0000.0001) //            Max. X spins =              0
(PID.TID 0000.0001) //            Min. X spins =     1000000000
(PID.TID 0000.0001) //          Total. X spins =              0
(PID.TID 0000.0001) //            Avg. X spins =       0.00E+00
(PID.TID 0000.0001) //         No. Y exchanges =              0
(PID.TID 0000.0001) //            Max. Y spins =              0
(PID.TID 0000.0001) //            Min. Y spins =     1000000000
(PID.TID 0000.0001) //          Total. Y spins =              0
(PID.TID 0000.0001) //            Avg. Y spins =       0.00E+00
(PID.TID 0000.0001) // o Tile number: 000003
(PID.TID 0000.0001) //         No. X exchanges =              0
(PID.TID 0000.0001) //            Max. X spins =              0
(PID.TID 0000.0001) //            Min. X spins =     1000000000
(PID.TID 0000.0001) //          Total. X spins =              0
(PID.TID 0000.0001) //            Avg. X spins =       0.00E+00
(PID.TID 0000.0001) //         No. Y exchanges =              0
(PID.TID 0000.0001) //            Max. Y spins =              0
(PID.TID 0000.0001) //            Min. Y spins =     1000000000
(PID.TID 0000.0001) //          Total. Y spins =              0
(PID.TID 0000.0001) //            Avg. Y spins =       0.00E+00
(PID.TID 0000.0001) // o Tile number: 000004
(PID.TID 0000.0001) //         No. X exchanges =              0
(PID.TID 0000.0001) //            Max. X spins =              0
(PID.TID 0000.0001) //            Min. X spins =     1000000000
(PID.TID 0000.0001) //          Total. X spins =              0
(PID.TID 0000.0001) //            Avg. X spins =       0.00E+00
(PID.TID 0000.0001) //         No. Y exchanges =              0
(PID.TID 0000.0001) //            Max. Y spins =              0
(PID.TID 0000.0001) //            Min. Y spins =     1000000000
(PID.TID 0000.0001) //          Total. Y spins =              0
(PID.TID 0000.0001) //            Avg. Y spins =       0.00E+00
(PID.TID 0000.0001) // o Thread number: 000001
(PID.TID 0000.0001) //            No. barriers =          56280
(PID.TID 0000.0001) //      Max. barrier spins =              1
(PID.TID 0000.0001) //      Min. barrier spins =              1
(PID.TID 0000.0001) //     Total barrier spins =          56280
(PID.TID 0000.0001) //      Avg. barrier spins =       1.00E+00
