(PID.TID 0000.0001) 
(PID.TID 0000.0001) // ======================================================
(PID.TID 0000.0001) //                      MITgcm UV
(PID.TID 0000.0001) //                      =========
(PID.TID 0000.0001) // ======================================================
(PID.TID 0000.0001) // execution environment starting up...
(PID.TID 0000.0001) 
(PID.TID 0000.0001) // MITgcmUV version:  checkpoint63i
(PID.TID 0000.0001) // Build user:        jmc
(PID.TID 0000.0001) // Build host:        baudelaire
(PID.TID 0000.0001) // Build date:        Tue Jan 31 11:00:50 EST 2012
(PID.TID 0000.0001) 
(PID.TID 0000.0001) // =======================================================
(PID.TID 0000.0001) // Execution Environment parameter file "eedata"
(PID.TID 0000.0001) // =======================================================
(PID.TID 0000.0001) ># Example "eedata" file
(PID.TID 0000.0001) ># Lines beginning "#" are comments
(PID.TID 0000.0001) ># nTx - No. threads per process in X
(PID.TID 0000.0001) ># nTy - No. threads per process in Y
(PID.TID 0000.0001) > &EEPARMS
(PID.TID 0000.0001) > nTx=1,
(PID.TID 0000.0001) > nTy=1,
(PID.TID 0000.0001) > /
(PID.TID 0000.0001) ># Note: Some systems use & as the
(PID.TID 0000.0001) ># namelist terminator. Other systems
(PID.TID 0000.0001) ># use a / character (as shown here).
(PID.TID 0000.0001) 
(PID.TID 0000.0001) // =======================================================
(PID.TID 0000.0001) // Computational Grid Specification ( see files "SIZE.h" )
(PID.TID 0000.0001) //                                  ( and "eedata"       )
(PID.TID 0000.0001) // =======================================================
(PID.TID 0000.0001)      nPx =    1 ; /* No. processes in X */
(PID.TID 0000.0001)      nPy =    1 ; /* No. processes in Y */
(PID.TID 0000.0001)      nSx =    2 ; /* No. tiles in X per process */
(PID.TID 0000.0001)      nSy =    2 ; /* No. tiles in Y per process */
(PID.TID 0000.0001)      sNx =   10 ; /* Tile size in X */
(PID.TID 0000.0001)      sNy =    8 ; /* Tile size in Y */
(PID.TID 0000.0001)      OLx =    4 ; /* Tile overlap distance in X */
(PID.TID 0000.0001)      OLy =    4 ; /* Tile overlap distance in Y */
(PID.TID 0000.0001)      nTx =    1 ; /* No. threads in X per process */
(PID.TID 0000.0001)      nTy =    1 ; /* No. threads in Y per process */
(PID.TID 0000.0001)       Nr =   23 ; /* No. levels in the vertical   */
(PID.TID 0000.0001)       Nx =   20 ; /* Total domain size in X ( = nPx*nSx*sNx ) */
(PID.TID 0000.0001)       Ny =   16 ; /* Total domain size in Y ( = nPy*nSy*sNy ) */
(PID.TID 0000.0001)   nTiles =    4 ; /* Total no. tiles per process ( = nSx*nSy ) */
(PID.TID 0000.0001)   nProcs =    1 ; /* Total no. processes ( = nPx*nPy ) */
(PID.TID 0000.0001) nThreads =    1 ; /* Total no. threads per process ( = nTx*nTy ) */
(PID.TID 0000.0001) usingMPI =    F ; /* Flag used to control whether MPI is in use */
(PID.TID 0000.0001)                   /*  note: To execute a program with MPI calls */
(PID.TID 0000.0001)                   /*  it must be launched appropriately e.g     */
(PID.TID 0000.0001)                   /*  "mpirun -np 64 ......"                    */
(PID.TID 0000.0001) useCoupler=    F ;/* Flag used to control communications with   */
(PID.TID 0000.0001)                   /*  other model components, through a coupler */
(PID.TID 0000.0001) debugMode =    F ; /* print debug msg. (sequence of S/R calls)  */
(PID.TID 0000.0001) printMapIncludesZeros=    F ; /* print zeros in Std.Output maps */
(PID.TID 0000.0001) maxLengthPrt1D=   65 /* maxLength of 1D array printed to StdOut */
(PID.TID 0000.0001) 
(PID.TID 0000.0001) // ======================================================
(PID.TID 0000.0001) // Mapping of tiles to threads
(PID.TID 0000.0001) // ======================================================
(PID.TID 0000.0001) // -o- Thread   1, tiles (   1:   2,   1:   2)
(PID.TID 0000.0001) 
(PID.TID 0000.0001) // ======================================================
(PID.TID 0000.0001) // Tile <-> Tile connectvity table
(PID.TID 0000.0001) // ======================================================
(PID.TID 0000.0001) // Tile number: 000001 (process no. = 000001)
(PID.TID 0000.0001) //        WEST: Tile = 000002, Process = 000001, Comm = put
(PID.TID 0000.0001) //                bi = 000002, bj = 000001
(PID.TID 0000.0001) //        EAST: Tile = 000002, Process = 000001, Comm = put
(PID.TID 0000.0001) //                bi = 000002, bj = 000001
(PID.TID 0000.0001) //       SOUTH: Tile = 000003, Process = 000001, Comm = put
(PID.TID 0000.0001) //                bi = 000001, bj = 000002
(PID.TID 0000.0001) //       NORTH: Tile = 000003, Process = 000001, Comm = put
(PID.TID 0000.0001) //                bi = 000001, bj = 000002
(PID.TID 0000.0001) // Tile number: 000002 (process no. = 000001)
(PID.TID 0000.0001) //        WEST: Tile = 000001, Process = 000001, Comm = put
(PID.TID 0000.0001) //                bi = 000001, bj = 000001
(PID.TID 0000.0001) //        EAST: Tile = 000001, Process = 000001, Comm = put
(PID.TID 0000.0001) //                bi = 000001, bj = 000001
(PID.TID 0000.0001) //       SOUTH: Tile = 000004, Process = 000001, Comm = put
(PID.TID 0000.0001) //                bi = 000002, bj = 000002
(PID.TID 0000.0001) //       NORTH: Tile = 000004, Process = 000001, Comm = put
(PID.TID 0000.0001) //                bi = 000002, bj = 000002
(PID.TID 0000.0001) // Tile number: 000003 (process no. = 000001)
(PID.TID 0000.0001) //        WEST: Tile = 000004, Process = 000001, Comm = put
(PID.TID 0000.0001) //                bi = 000002, bj = 000002
(PID.TID 0000.0001) //        EAST: Tile = 000004, Process = 000001, Comm = put
(PID.TID 0000.0001) //                bi = 000002, bj = 000002
(PID.TID 0000.0001) //       SOUTH: Tile = 000001, Process = 000001, Comm = put
(PID.TID 0000.0001) //                bi = 000001, bj = 000001
(PID.TID 0000.0001) //       NORTH: Tile = 000001, Process = 000001, Comm = put
(PID.TID 0000.0001) //                bi = 000001, bj = 000001
(PID.TID 0000.0001) // Tile number: 000004 (process no. = 000001)
(PID.TID 0000.0001) //        WEST: Tile = 000003, Process = 000001, Comm = put
(PID.TID 0000.0001) //                bi = 000001, bj = 000002
(PID.TID 0000.0001) //        EAST: Tile = 000003, Process = 000001, Comm = put
(PID.TID 0000.0001) //                bi = 000001, bj = 000002
(PID.TID 0000.0001) //       SOUTH: Tile = 000002, Process = 000001, Comm = put
(PID.TID 0000.0001) //                bi = 000002, bj = 000001
(PID.TID 0000.0001) //       NORTH: Tile = 000002, Process = 000001, Comm = put
(PID.TID 0000.0001) //                bi = 000002, bj = 000001
(PID.TID 0000.0001) 
(PID.TID 0000.0001)  INI_PARMS: opening model parameter file "data"
(PID.TID 0000.0001)  OPEN_COPY_DATA_FILE: opening file data
(PID.TID 0000.0001) // =======================================================
(PID.TID 0000.0001) // Parameter file "data"
(PID.TID 0000.0001) // =======================================================
(PID.TID 0000.0001) ># ====================
(PID.TID 0000.0001) ># | Model parameters |
(PID.TID 0000.0001) ># ====================
(PID.TID 0000.0001) >#
(PID.TID 0000.0001) ># Continuous equation parameters
(PID.TID 0000.0001) >#
(PID.TID 0000.0001) >#   tRef            - Reference vertical potential temperature          (deg C)
(PID.TID 0000.0001) >#   sRef            - Reference vertical salinity                         (PSU)
(PID.TID 0000.0001) >#   viscAh          - Horizontal eddy viscosity coefficient             (m^2/s)
(PID.TID 0000.0001) >#   viscAz          - Vertical eddy viscosity coefficient               (m^2/s)
(PID.TID 0000.0001) >#   diffKhT         - Horizontal temperature diffusivity                (m^2/s)
(PID.TID 0000.0001) >#   diffKzT         - Vertical temperature diffusivity                  (m^2/s)
(PID.TID 0000.0001) >#   diffKhS         - Horizontal salt diffusivity                       (m^2/s)
(PID.TID 0000.0001) >#   diffKzS         - Vertical salt diffusivity                         (m^2/s)
(PID.TID 0000.0001) >#   gravity         - Acceleration due to gravity                       (m/s^2)
(PID.TID 0000.0001) >#   rigidLid        - Set to true to use rigid lid
(PID.TID 0000.0001) >#   implicitFreeSurface - Set to true to use implicit free surface
(PID.TID 0000.0001) >#   eosType         - Flag for linear or polynomial equation of state
(PID.TID 0000.0001) >#   momAdvection    - On/Off flag for momentum self transport
(PID.TID 0000.0001) >#   momViscosity    - On/Off flag for momentum mixing
(PID.TID 0000.0001) >#
(PID.TID 0000.0001) > &PARM01
(PID.TID 0000.0001) > tRef= 24.0 , 23.0 , 22.0 , 21.0 , 20.0 ,
(PID.TID 0000.0001) >       19.0 , 18.0 , 17.0 , 16.0 , 15.0 ,
(PID.TID 0000.0001) >       14.0 , 13.0 , 12.0 , 11.0 , 10.0 ,
(PID.TID 0000.0001) >        9.0 ,  8.0 ,  7.0 ,  6.0,   5.0 ,
(PID.TID 0000.0001) >        4.0 ,  3.0 ,  2.0 ,
(PID.TID 0000.0001) > sRef= 34.65, 34.75, 34.82, 34.87, 34.90,
(PID.TID 0000.0001) >       34.90, 34.86, 34.78, 34.69, 34.60,
(PID.TID 0000.0001) >       34.58, 34.62, 34.68, 34.72, 34.73,
(PID.TID 0000.0001) >       34.74, 34.73, 34.73, 34.72, 34.72,
(PID.TID 0000.0001) >       34.71, 34.70, 34.69,
(PID.TID 0000.0001) > no_slip_sides=.FALSE.,
(PID.TID 0000.0001) > no_slip_bottom=.TRUE.,
(PID.TID 0000.0001) > viscAz=1.93e-5,
(PID.TID 0000.0001) > viscAh=5.E4,
(PID.TID 0000.0001) > diffKhT=0.0,
(PID.TID 0000.0001) > diffKzT=1.46e-5,
(PID.TID 0000.0001) > diffKhS=0.0,
(PID.TID 0000.0001) > diffKzS=1.46e-5,
(PID.TID 0000.0001) > rigidLid=.FALSE.,
(PID.TID 0000.0001) > implicitFreeSurface=.TRUE.,
(PID.TID 0000.0001) > eosType='JMD95Z',
(PID.TID 0000.0001) > saltStepping=.TRUE.,
(PID.TID 0000.0001) > tempStepping=.TRUE.,
(PID.TID 0000.0001) > momStepping=.TRUE.,
(PID.TID 0000.0001) > implicitDiffusion=.TRUE.,
(PID.TID 0000.0001) > implicitViscosity=.TRUE.,
(PID.TID 0000.0001) > allowFreezing=.FALSE.,
(PID.TID 0000.0001) >#- set wrong celsius2K to reproduce old results:
(PID.TID 0000.0001) > celsius2K=273.16,
(PID.TID 0000.0001) > HeatCapacity_Cp = 3986.D0,
(PID.TID 0000.0001) > gravity         = 9.8156,
(PID.TID 0000.0001) > rhoConst        = 1027.D0,
(PID.TID 0000.0001) > rhoConstFresh   = 999.8,
(PID.TID 0000.0001) > useCDscheme=.TRUE.,
(PID.TID 0000.0001) > inAdExact=.TRUE.,
(PID.TID 0000.0001) >#ph(
(PID.TID 0000.0001) > staggerTimeStep=.TRUE.,
(PID.TID 0000.0001) > multiDimAdvection=.TRUE.,
(PID.TID 0000.0001) > tempAdvScheme=30,
(PID.TID 0000.0001) > saltAdvScheme=30,
(PID.TID 0000.0001) >#ph)
(PID.TID 0000.0001) >#globalFiles=.TRUE.,
(PID.TID 0000.0001) >#- not safe to use globalFiles in multi-processors runs; set instead useSingleCpuIO
(PID.TID 0000.0001) > useSingleCpuIO=.FALSE.,
(PID.TID 0000.0001) > readBinaryPrec=32,
(PID.TID 0000.0001) > writeBinaryPrec=32,
(PID.TID 0000.0001) > /
(PID.TID 0000.0001) >
(PID.TID 0000.0001) ># Elliptic solver parameters
(PID.TID 0000.0001) >#
(PID.TID 0000.0001) >#   cg2dMaxIters       - Maximum number of 2d solver iterations
(PID.TID 0000.0001) >#   cg2dTargetResidual - Solver target residual
(PID.TID 0000.0001) >#
(PID.TID 0000.0001) > &PARM02
(PID.TID 0000.0001) > cg2dMaxIters=1000,
(PID.TID 0000.0001) > cg2dTargetResidual=1.E-13,
(PID.TID 0000.0001) > /
(PID.TID 0000.0001) >
(PID.TID 0000.0001) ># Time stepping parameters
(PID.TID 0000.0001) >#
(PID.TID 0000.0001) >#   startTime         - Integration starting time                (s)
(PID.TID 0000.0001) >#   endTime           - Integration ending time                  (s)
(PID.TID 0000.0001) >#   tauCD             - CD scheme coupling timescale             (s)
(PID.TID 0000.0001) >#   deltaTMom         - Timestep for momemtum equations          (s)
(PID.TID 0000.0001) >#   deltaTtracer      - Tracer timestep                          (s)
(PID.TID 0000.0001) >#   deltaTClock       - Timestep used as model "clock"           (s)
(PID.TID 0000.0001) >#   abEps             - Adams-Bashforth stabilising factor
(PID.TID 0000.0001) >#   pChkPtFreq        - Frequency of permanent check pointing    (s)
(PID.TID 0000.0001) >#   chkPtFreq         - Frequency of rolling check pointing      (s)
(PID.TID 0000.0001) >#   dumpFreq          - Frequency at which model state is stored (s)
(PID.TID 0000.0001) >#   tauThetaClimRelax - Relaxation to climatology time scale     (s)
(PID.TID 0000.0001) >#   tauSaltClimRelax  - Relaxation to climatology time scale     (s)
(PID.TID 0000.0001) >#
(PID.TID 0000.0001) > &PARM03
(PID.TID 0000.0001) > tauCD=172800.,
(PID.TID 0000.0001) > startTime=0.0,
(PID.TID 0000.0001) > nTimeSteps=3,
(PID.TID 0000.0001) > deltaTmom=3600.0,
(PID.TID 0000.0001) > deltaTtracer=3600.0,
(PID.TID 0000.0001) > deltaTClock =3600.0,
(PID.TID 0000.0001) > cAdjFreq=0.,
(PID.TID 0000.0001) > abEps=0.1,
(PID.TID 0000.0001) > forcing_In_AB = .FALSE.,
(PID.TID 0000.0001) > pChkptFreq=36000.,
(PID.TID 0000.0001) > chkptFreq= 0.,
(PID.TID 0000.0001) > dumpFreq = 0.,
(PID.TID 0000.0001) > taveFreq = 36000.,
(PID.TID 0000.0001) > monitorFreq=1.,
(PID.TID 0000.0001) > adjMonitorFreq=1.,
(PID.TID 0000.0001) > adjDumpFreq=1.,
(PID.TID 0000.0001) > /
(PID.TID 0000.0001) >
(PID.TID 0000.0001) ># Gridding parameters
(PID.TID 0000.0001) >#
(PID.TID 0000.0001) >#   usingSphericalPolarGrid - On/Off flag for spherical polar coordinates
(PID.TID 0000.0001) >#   delX                    - Zonal grid spacing         (degrees)
(PID.TID 0000.0001) >#   delY                    - Meridional grid spacing    (degrees)
(PID.TID 0000.0001) >#   delZ                    - Vertical grid spacing      (m)
(PID.TID 0000.0001) >#   ygOrigin                - Southern boundary latitude (degrees)
(PID.TID 0000.0001) >#
(PID.TID 0000.0001) > &PARM04
(PID.TID 0000.0001) > usingSphericalPolarGrid=.TRUE.,
(PID.TID 0000.0001) > delX=20*2.E0,
(PID.TID 0000.0001) > delY=16*2.E0,
(PID.TID 0000.0001) > delZ= 10., 10., 15., 20., 20., 25., 35., 50., 75.,
(PID.TID 0000.0001) >       100., 150., 200., 275., 350., 415., 450.,
(PID.TID 0000.0001) >       500., 500., 500., 500., 500., 500., 500.,
(PID.TID 0000.0001) > ygOrigin=46.,
(PID.TID 0000.0001) > xgOrigin=280.,
(PID.TID 0000.0001) > rSphere = 6371.D3,
(PID.TID 0000.0001) > /
(PID.TID 0000.0001) >
(PID.TID 0000.0001) ># Input datasets
(PID.TID 0000.0001) >#
(PID.TID 0000.0001) >#   bathyFile       - File containing bathymetry
(PID.TID 0000.0001) >#   hydrogThetaFile - File containing initial potential temperature data
(PID.TID 0000.0001) >#   hydrogSaltFile  - File containing initial salinity data
(PID.TID 0000.0001) >#   zonalWindFile   - File containing zonal wind data
(PID.TID 0000.0001) >#   meridWindFile   - File containing meridional wind data
(PID.TID 0000.0001) >#   thetaClimFile   - File containing theta climatology used for relaxation
(PID.TID 0000.0001) >#   saltClimFile    - File containing salt climatology used for relaxation
(PID.TID 0000.0001) >#
(PID.TID 0000.0001) > &PARM05
(PID.TID 0000.0001) > bathyFile       = 'bathy.labsea1979',
(PID.TID 0000.0001) > hydrogThetaFile = 'LevCli_temp.labsea1979',
(PID.TID 0000.0001) > hydrogSaltFile  = 'LevCli_salt.labsea1979',
(PID.TID 0000.0001) > /
(PID.TID 0000.0001) >
(PID.TID 0000.0001) 
(PID.TID 0000.0001)  INI_PARMS ; starts to read PARM01
(PID.TID 0000.0001)  INI_PARMS ; read PARM01 : OK
(PID.TID 0000.0001)  INI_PARMS ; starts to read PARM02
(PID.TID 0000.0001)  INI_PARMS ; read PARM02 : OK
(PID.TID 0000.0001)  INI_PARMS ; starts to read PARM03
(PID.TID 0000.0001)  INI_PARMS ; read PARM03 : OK
(PID.TID 0000.0001)  INI_PARMS ; starts to read PARM04
(PID.TID 0000.0001)  INI_PARMS ; read PARM04 : OK
(PID.TID 0000.0001)  INI_PARMS ; starts to read PARM05
(PID.TID 0000.0001)  INI_PARMS ; read PARM05 : OK
(PID.TID 0000.0001)  INI_PARMS: finished reading file "data"
(PID.TID 0000.0001)  PACKAGES_BOOT: opening data.pkg
(PID.TID 0000.0001)  OPEN_COPY_DATA_FILE: opening file data.pkg
(PID.TID 0000.0001) // =======================================================
(PID.TID 0000.0001) // Parameter file "data.pkg"
(PID.TID 0000.0001) // =======================================================
(PID.TID 0000.0001) ># Packages
(PID.TID 0000.0001) > &PACKAGES
(PID.TID 0000.0001) >  useGMRedi = .TRUE.,
(PID.TID 0000.0001) >  useKPP    = .TRUE.,
(PID.TID 0000.0001) >  useEXF    = .TRUE.,
(PID.TID 0000.0001) >  useSEAICE = .TRUE.,
(PID.TID 0000.0001) >  useDOWN_SLOPE=.TRUE.,
(PID.TID 0000.0001) >  useDiagnostics = .FALSE.,
(PID.TID 0000.0001) ># useMNC    = .TRUE.,
(PID.TID 0000.0001) >  useECCO   = .TRUE.,
(PID.TID 0000.0001) >  useGrdchk = .TRUE.,
(PID.TID 0000.0001) > /
(PID.TID 0000.0001) 
(PID.TID 0000.0001)  PACKAGES_BOOT: finished reading data.pkg
(PID.TID 0000.0001) CAL_READPARMS: opening data.cal
(PID.TID 0000.0001)  OPEN_COPY_DATA_FILE: opening file data.cal
(PID.TID 0000.0001) // =======================================================
(PID.TID 0000.0001) // Parameter file "data.cal"
(PID.TID 0000.0001) // =======================================================
(PID.TID 0000.0001) >#
(PID.TID 0000.0001) ># *******************
(PID.TID 0000.0001) ># Calendar Parameters
(PID.TID 0000.0001) ># *******************
(PID.TID 0000.0001) > &CAL_NML
(PID.TID 0000.0001) > TheCalendar='gregorian',
(PID.TID 0000.0001) ># TheCalendar='model',
(PID.TID 0000.0001) > startDate_1=19790101,
(PID.TID 0000.0001) > startDate_2=000000,
(PID.TID 0000.0001) > /
(PID.TID 0000.0001) 
(PID.TID 0000.0001) CAL_READPARMS: finished reading data.cal
(PID.TID 0000.0001) 
(PID.TID 0000.0001) // =======================================================
(PID.TID 0000.0001) // Calendar configuration >>> START <<<
(PID.TID 0000.0001) // =======================================================
(PID.TID 0000.0001) 
(PID.TID 0000.0001) Calendar version: 0.2.0
(PID.TID 0000.0001) 
(PID.TID 0000.0001) startTime =   /* Start time of the model integration [s] */
(PID.TID 0000.0001)                 0.000000000000000E+00
(PID.TID 0000.0001)     ;
(PID.TID 0000.0001) endTime =   /* End time of the model integration [s] */
(PID.TID 0000.0001)                 1.080000000000000E+04
(PID.TID 0000.0001)     ;
(PID.TID 0000.0001) deltatclock =   /* Time interval for a model forward step [s] */
(PID.TID 0000.0001)                 3.600000000000000E+03
(PID.TID 0000.0001)     ;
(PID.TID 0000.0001) usingGregorianCalendar =  /* Calendar Type: Gregorian Calendar */
(PID.TID 0000.0001)                   T
(PID.TID 0000.0001)     ;
(PID.TID 0000.0001) usingJulianCalendar =  /* Calendar Type: Julian Calendar */
(PID.TID 0000.0001)                   F
(PID.TID 0000.0001)     ;
(PID.TID 0000.0001) usingModelCalendar =  /* Calendar Type: Model Calendar */
(PID.TID 0000.0001)                   F
(PID.TID 0000.0001)     ;
(PID.TID 0000.0001) usingNoCalendar =  /* Calendar Type: No Calendar */
(PID.TID 0000.0001)                   F
(PID.TID 0000.0001)     ;
(PID.TID 0000.0001) modelstartdate (YYYYMMDD) =   /* Model start date YYYY-MM-DD  */
(PID.TID 0000.0001)                19790101
(PID.TID 0000.0001)     ;
(PID.TID 0000.0001) modelstartdate (HHMMSS) =   /* Model start date HH-MM-SS  */
(PID.TID 0000.0001)                       0
(PID.TID 0000.0001)     ;
(PID.TID 0000.0001) modelenddate (YYYYMMDD) =   /* Model end date YYYY-MM-DD  */
(PID.TID 0000.0001)                19790101
(PID.TID 0000.0001)     ;
(PID.TID 0000.0001) modelenddate (HHMMSS) =   /* Model end date HH-MM-SS  */
(PID.TID 0000.0001)                   30000
(PID.TID 0000.0001)     ;
(PID.TID 0000.0001) intyears = /* Number of calendar years affected by the integration */
(PID.TID 0000.0001)                       1
(PID.TID 0000.0001)     ;
(PID.TID 0000.0001) intmonths= /* Number of calendar months affected by the integration */
(PID.TID 0000.0001)                       1
(PID.TID 0000.0001)     ;
(PID.TID 0000.0001) intdays = /* Number of calendar days affected by the integration */
(PID.TID 0000.0001)                       1
(PID.TID 0000.0001)     ;
(PID.TID 0000.0001) 
(PID.TID 0000.0001) // =======================================================
(PID.TID 0000.0001) // Calendar configuration  >>> END <<<
(PID.TID 0000.0001) // =======================================================
(PID.TID 0000.0001) 
(PID.TID 0000.0001) EXF_READPARMS: opening data.exf
(PID.TID 0000.0001)  OPEN_COPY_DATA_FILE: opening file data.exf
(PID.TID 0000.0001) // =======================================================
(PID.TID 0000.0001) // Parameter file "data.exf"
(PID.TID 0000.0001) // =======================================================
(PID.TID 0000.0001) >#
(PID.TID 0000.0001) ># *********************
(PID.TID 0000.0001) ># External Forcing Data
(PID.TID 0000.0001) ># *********************
(PID.TID 0000.0001) > &EXF_NML_01
(PID.TID 0000.0001) >#
(PID.TID 0000.0001) > useExfCheckRange  = .TRUE.,
(PID.TID 0000.0001) > repeatPeriod      = 31622400.0,
(PID.TID 0000.0001) > exf_iprec         = 32,
(PID.TID 0000.0001) >#
(PID.TID 0000.0001) > /
(PID.TID 0000.0001) >
(PID.TID 0000.0001) ># *********************
(PID.TID 0000.0001) > &EXF_NML_02
(PID.TID 0000.0001) >#
(PID.TID 0000.0001) > hfluxstartdate1   = 19781216,
(PID.TID 0000.0001) > hfluxstartdate2   = 180000,
(PID.TID 0000.0001) > hfluxperiod       = 2635200.0,
(PID.TID 0000.0001) >#
(PID.TID 0000.0001) > sfluxstartdate1   = 19781216,
(PID.TID 0000.0001) > sfluxstartdate2   = 180000,
(PID.TID 0000.0001) > sfluxperiod       = 2635200.0,
(PID.TID 0000.0001) >#
(PID.TID 0000.0001) > ustressstartdate1 = 19781216,
(PID.TID 0000.0001) > ustressstartdate2 = 180000,
(PID.TID 0000.0001) > ustressperiod     = 2635200.0,
(PID.TID 0000.0001) >#
(PID.TID 0000.0001) > vstressstartdate1 = 19781216,
(PID.TID 0000.0001) > vstressstartdate2 = 180000,
(PID.TID 0000.0001) > vstressperiod     = 2635200.0,
(PID.TID 0000.0001) >#
(PID.TID 0000.0001) > atempstartdate1   = 19781216,
(PID.TID 0000.0001) > atempstartdate2   = 180000,
(PID.TID 0000.0001) > atempperiod       = 2635200.0,
(PID.TID 0000.0001) >#
(PID.TID 0000.0001) > aqhstartdate1     = 19781216,
(PID.TID 0000.0001) > aqhstartdate2     = 180000,
(PID.TID 0000.0001) > aqhperiod         = 2635200.0,
(PID.TID 0000.0001) >#
(PID.TID 0000.0001) >#evapstartdate1    = 19781216,
(PID.TID 0000.0001) >#evapstartdate2    = 180000,
(PID.TID 0000.0001) >#evapperiod        = 2635200.0,
(PID.TID 0000.0001) >#
(PID.TID 0000.0001) > precipstartdate1  = 19781216,
(PID.TID 0000.0001) > precipstartdate2  = 180000,
(PID.TID 0000.0001) > precipperiod      = 2635200.0,
(PID.TID 0000.0001) >#
(PID.TID 0000.0001) > uwindstartdate1   = 19781216,
(PID.TID 0000.0001) > uwindstartdate2   = 180000,
(PID.TID 0000.0001) > uwindperiod       = 2635200.0,
(PID.TID 0000.0001) >#
(PID.TID 0000.0001) > vwindstartdate1   = 19781216,
(PID.TID 0000.0001) > vwindstartdate2   = 180000,
(PID.TID 0000.0001) > vwindperiod       = 2635200.0,
(PID.TID 0000.0001) >#
(PID.TID 0000.0001) > swfluxstartdate1  = 19781216,
(PID.TID 0000.0001) > swfluxstartdate2  = 180000,
(PID.TID 0000.0001) > swfluxperiod      = 2635200.0,
(PID.TID 0000.0001) >#
(PID.TID 0000.0001) > lwfluxstartdate1  = 19781216,
(PID.TID 0000.0001) > lwfluxstartdate2  = 180000,
(PID.TID 0000.0001) > lwfluxperiod      = 2635200.0,
(PID.TID 0000.0001) >#
(PID.TID 0000.0001) > swdownstartdate1  = 19781216,
(PID.TID 0000.0001) > swdownstartdate2  = 180000,
(PID.TID 0000.0001) > swdownperiod      = 2635200.0,
(PID.TID 0000.0001) >#
(PID.TID 0000.0001) > lwdownstartdate1  = 19781216,
(PID.TID 0000.0001) > lwdownstartdate2  = 180000,
(PID.TID 0000.0001) > lwdownperiod      = 2635200.0,
(PID.TID 0000.0001) >#
(PID.TID 0000.0001) > climsststartdate1  = 19781216,
(PID.TID 0000.0001) > climsststartdate2  = 180000,
(PID.TID 0000.0001) > climsstperiod      = 2635200.0,
(PID.TID 0000.0001) > climsstTauRelax    = 0.0,
(PID.TID 0000.0001) >#
(PID.TID 0000.0001) > climsssstartdate1  = 19781216,
(PID.TID 0000.0001) > climsssstartdate2  = 180000,
(PID.TID 0000.0001) > climsssperiod      = 2635200.0,
(PID.TID 0000.0001) > climsssTauRelax    = 4142330.0,
(PID.TID 0000.0001) >#
(PID.TID 0000.0001) > hfluxfile         = ' ',
(PID.TID 0000.0001) > sfluxfile         = ' ',
(PID.TID 0000.0001) > ustressfile       = ' ',
(PID.TID 0000.0001) > vstressfile       = ' ',
(PID.TID 0000.0001) > atempfile         = 'tair.labsea1979',
(PID.TID 0000.0001) > aqhfile           = 'qa.labsea1979',
(PID.TID 0000.0001) > uwindfile         = 'u10m.labsea1979',
(PID.TID 0000.0001) > vwindfile         = 'v10m.labsea1979',
(PID.TID 0000.0001) >#evapfile          = 'evap.labsea1979',
(PID.TID 0000.0001) > precipfile        = 'prate.labsea1979',
(PID.TID 0000.0001) > lwfluxfile        = ' ',
(PID.TID 0000.0001) > swfluxfile        = ' ',
(PID.TID 0000.0001) > lwdownfile        = 'flo.labsea1979',
(PID.TID 0000.0001) > swdownfile        = 'fsh.labsea1979',
(PID.TID 0000.0001) > runoffFile        = ' '
(PID.TID 0000.0001) > climsstfile       = ' ',
(PID.TID 0000.0001) > climsssfile       = 'SSS_monthly.labsea1979',
(PID.TID 0000.0001) >#
(PID.TID 0000.0001) > /
(PID.TID 0000.0001) >
(PID.TID 0000.0001) ># *********************
(PID.TID 0000.0001) > &EXF_NML_03
(PID.TID 0000.0001) > /
(PID.TID 0000.0001) >
(PID.TID 0000.0001) ># *********************
(PID.TID 0000.0001) > &EXF_NML_04
(PID.TID 0000.0001) > /
(PID.TID 0000.0001) 
(PID.TID 0000.0001) EXF_READPARMS: reading EXF_NML_01
(PID.TID 0000.0001) EXF_READPARMS: reading EXF_NML_02
(PID.TID 0000.0001) EXF_READPARMS: reading EXF_NML_03
(PID.TID 0000.0001) EXF_READPARMS: finished reading data.exf
(PID.TID 0000.0001)  GM_READPARMS: opening data.gmredi
(PID.TID 0000.0001)  OPEN_COPY_DATA_FILE: opening file data.gmredi
(PID.TID 0000.0001) // =======================================================
(PID.TID 0000.0001) // Parameter file "data.gmredi"
(PID.TID 0000.0001) // =======================================================
(PID.TID 0000.0001) ># GM+Redi package parameters:
(PID.TID 0000.0001) >#     GM_Small_Number  :: epsilon used in computing the slope
(PID.TID 0000.0001) >#     GM_slopeSqCutoff :: slope^2 cut-off value
(PID.TID 0000.0001) >
(PID.TID 0000.0001) >#-from MOM :
(PID.TID 0000.0001) ># GM_background_K: 	G & Mc.W  diffusion coefficient
(PID.TID 0000.0001) ># GM_maxSlope    :	max slope of isopycnals
(PID.TID 0000.0001) ># GM_Scrit       :	transition for scaling diffusion coefficient
(PID.TID 0000.0001) ># GM_Sd          :	half width scaling for diffusion coefficient
(PID.TID 0000.0001) ># GM_taper_scheme:	slope clipping or one of the tapering schemes
(PID.TID 0000.0001) ># GM_Kmin_horiz  :	horizontal diffusion minimum value
(PID.TID 0000.0001) >
(PID.TID 0000.0001) >#-Option parameters (needs to "define" options in GMREDI_OPTIONS.h")
(PID.TID 0000.0001) ># GM_isopycK     :	isopycnal diffusion coefficient (default=GM_background_K)
(PID.TID 0000.0001) ># GM_AdvForm     :	turn on GM Advective form       (default=Skew flux form)
(PID.TID 0000.0001) >
(PID.TID 0000.0001) > &GM_PARM01
(PID.TID 0000.0001) >  GM_Small_Number  = 1.D-20,
(PID.TID 0000.0001) >  GM_slopeSqCutoff = 1.D+08,
(PID.TID 0000.0001) >  GM_AdvForm         = .FALSE.,
(PID.TID 0000.0001) >#  GM_isopycK         = 1.1D+3,
(PID.TID 0000.0001) >#  GM_background_K    = 0.9D+3,
(PID.TID 0000.0001) >  GM_background_K    = 1.D+3,
(PID.TID 0000.0001) >  GM_taper_scheme    = 'dm95',
(PID.TID 0000.0001) >  GM_maxSlope        = 1.D-2,
(PID.TID 0000.0001) >  GM_Kmin_horiz      = 50.,
(PID.TID 0000.0001) >  GM_Scrit           = 4.D-3,
(PID.TID 0000.0001) >  GM_Sd              = 1.D-3,
(PID.TID 0000.0001) >#  GM_Visbeck_alpha   = 1.5D-2,
(PID.TID 0000.0001) >  GM_Visbeck_alpha   = 0.,
(PID.TID 0000.0001) >  GM_Visbeck_length  = 2.D+5,
(PID.TID 0000.0001) >  GM_Visbeck_depth   = 1.D+3,
(PID.TID 0000.0001) >  GM_Visbeck_maxval_K= 2.5D+3,
(PID.TID 0000.0001) > /
(PID.TID 0000.0001) >
(PID.TID 0000.0001) >
(PID.TID 0000.0001) 
(PID.TID 0000.0001)  GM_READPARMS: finished reading data.gmredi
(PID.TID 0000.0001)  DWNSLP_READPARMS: opening data.down_slope
(PID.TID 0000.0001)  OPEN_COPY_DATA_FILE: opening file data.down_slope
(PID.TID 0000.0001) // =======================================================
(PID.TID 0000.0001) // Parameter file "data.down_slope"
(PID.TID 0000.0001) // =======================================================
(PID.TID 0000.0001) ># DOWN_SLOPE package parameters (lines beginning "#" are comments):
(PID.TID 0000.0001) >#   DWNSLP_slope  :: fixed slope (=0 => use the local slope)
(PID.TID 0000.0001) >#   DWNSLP_rec_mu :: reciprol friction parameter (unit = time scale [s])
(PID.TID 0000.0001) >#         used to compute the flow: U=dy*dz*(slope * g/mu * dRho / rho0)
(PID.TID 0000.0001) >#   dwnslp_drFlow :: max. thickness [m] of the effective downsloping flow layer
(PID.TID 0000.0001) > &DWNSLP_PARM01
(PID.TID 0000.0001) >  DWNSLP_slope = 5.E-3,
(PID.TID 0000.0001) >  DWNSLP_rec_mu= 1.E+4,
(PID.TID 0000.0001) >  DWNSLP_drFlow= 30.,
(PID.TID 0000.0001) ># temp_useDWNSLP=.FALSE.,
(PID.TID 0000.0001) ># salt_useDWNSLP=.FALSE.,
(PID.TID 0000.0001) > /
(PID.TID 0000.0001) 
(PID.TID 0000.0001)  DWNSLP_READPARMS: finished reading data.downslp
(PID.TID 0000.0001) DWNSLP_slope =   /* DOWNSLP fixed slope (=0 => use local slope) */
(PID.TID 0000.0001)                 5.000000000000000E-03
(PID.TID 0000.0001)     ;
(PID.TID 0000.0001) DWNSLP_rec_mu =   /* DOWNSLP recip. friction parameter (time, s ) */
(PID.TID 0000.0001)                 1.000000000000000E+04
(PID.TID 0000.0001)     ;
(PID.TID 0000.0001) DWNSLP_drFlow =   /* DOWNSLP effective layer thickness ( m ) */
(PID.TID 0000.0001)                 3.000000000000000E+01
(PID.TID 0000.0001)     ;
(PID.TID 0000.0001)  KPP_INIT: opening data.kpp
(PID.TID 0000.0001)  OPEN_COPY_DATA_FILE: opening file data.kpp
(PID.TID 0000.0001) // =======================================================
(PID.TID 0000.0001) // Parameter file "data.kpp"
(PID.TID 0000.0001) // =======================================================
(PID.TID 0000.0001) ># KPP parameters
(PID.TID 0000.0001) > &KPP_PARM01
(PID.TID 0000.0001) > KPPmixingMaps   = .FALSE.,
(PID.TID 0000.0001) > KPPwriteState   = .TRUE.,
(PID.TID 0000.0001) > KPP_ghatUseTotalDiffus=.TRUE.,
(PID.TID 0000.0001) > /
(PID.TID 0000.0001) 
(PID.TID 0000.0001)  KPP_INIT: finished reading data.kpp
(PID.TID 0000.0001) 
(PID.TID 0000.0001)  SEAICE_READPARMS: opening data.seaice
(PID.TID 0000.0001)  OPEN_COPY_DATA_FILE: opening file data.seaice
(PID.TID 0000.0001) // =======================================================
(PID.TID 0000.0001) // Parameter file "data.seaice"
(PID.TID 0000.0001) // =======================================================
(PID.TID 0000.0001) ># SEAICE parameters
(PID.TID 0000.0001) > &SEAICE_PARM01
(PID.TID 0000.0001) >#- old default for useFluxForm and DIFF1:
(PID.TID 0000.0001) >      SEAICEuseFluxForm  = .FALSE.,
(PID.TID 0000.0001) >      DIFF1 = 4.E-3,
(PID.TID 0000.0001) >      SEAICE_initialHEFF = 1.0,
(PID.TID 0000.0001) >      SEAICE_deltaTtherm = 3600.,
(PID.TID 0000.0001) >      SEAICE_deltaTdyn   = 3600.,
(PID.TID 0000.0001) >      SEAICEuseDYNAMICS  =.FALSE.,
(PID.TID 0000.0001) >#-- According to Martin, SEAICE_clipVelocities is not recommended
(PID.TID 0000.0001) >#     SEAICE_clipVelocities=.TRUE.,
(PID.TID 0000.0001) >      SEAICEadvSalt      =.FALSE.,
(PID.TID 0000.0001) >#-- above: to reproduce old results
(PID.TID 0000.0001) >      LSR_ERROR          = 1.E-6,
(PID.TID 0000.0001) >###      SEAICE_deltaTevp   = 60,
(PID.TID 0000.0001) >      SEAICE_EPS         = 1.E-8,
(PID.TID 0000.0001) >      SIsalFRAC          = 0.3,
(PID.TID 0000.0001) >      SEAICE_availHeatFrac = 0.8,
(PID.TID 0000.0001) >      SEAICEadvSnow      = .TRUE.,
(PID.TID 0000.0001) >      SEAICEuseFlooding  = .TRUE.,
(PID.TID 0000.0001) >      SEAICEwriteState   = .TRUE.,
(PID.TID 0000.0001) >#     SEAICE_tave_mnc    = .FALSE.,
(PID.TID 0000.0001) >#     SEAICE_dump_mnc    = .FALSE.,
(PID.TID 0000.0001) >#     SEAICE_mon_mnc     = .FALSE.,
(PID.TID 0000.0001) > /
(PID.TID 0000.0001) >
(PID.TID 0000.0001) > &SEAICE_PARM02
(PID.TID 0000.0001) >  mult_ice   = 1.,
(PID.TID 0000.0001) ># choose which seaice cost term you want
(PID.TID 0000.0001) >  cost_ice_flag = 1,
(PID.TID 0000.0001) ># the following timings are obsolete;
(PID.TID 0000.0001) ># replaced by lastinterval
(PID.TID 0000.0001) > costIceStart1        = 20000101,
(PID.TID 0000.0001) > costIceStart2        = 00000,
(PID.TID 0000.0001) > costIceEnd1        = 20000201,
(PID.TID 0000.0001) > costIceEnd2        = 00000,
(PID.TID 0000.0001) > /
(PID.TID 0000.0001) 
(PID.TID 0000.0001)  SEAICE_READPARMS: finished reading data.seaice
(PID.TID 0000.0001) 
(PID.TID 0000.0001) // =======================================================
(PID.TID 0000.0001) // Seaice configuration (SEAICE_PARM01) >>> START <<<
(PID.TID 0000.0001) // =======================================================
(PID.TID 0000.0001) 
(PID.TID 0000.0001) model grid type   = /* type of sea ice model grid */
(PID.TID 0000.0001)               'C-GRID'
(PID.TID 0000.0001)     ;
(PID.TID 0000.0001) SEAICEuseDYNAMICS = /* use dynamics */
(PID.TID 0000.0001)                   F
(PID.TID 0000.0001)     ;
(PID.TID 0000.0001) SEAICEuseFREEDRIFT = /* use free drift solution */
(PID.TID 0000.0001)                   F
(PID.TID 0000.0001)     ;
(PID.TID 0000.0001) SEAICEuseTEM      = /* use truncated ellipse rheology */
(PID.TID 0000.0001)                   F
(PID.TID 0000.0001)     ;
(PID.TID 0000.0001) SEAICE_strength   = /* sea-ice strength Pstar */
(PID.TID 0000.0001)                 2.750000000000000E+04
(PID.TID 0000.0001)     ;
(PID.TID 0000.0001) SEAICE_zetaMin    = /* lower bound for viscosity */
(PID.TID 0000.0001)                 0.000000000000000E+00
(PID.TID 0000.0001)     ;
(PID.TID 0000.0001) SEAICEuseMetricTerms = /* use metric terms */
(PID.TID 0000.0001)                   T
(PID.TID 0000.0001)     ;
(PID.TID 0000.0001) SEAICE_no_slip    = /* no slip boundary conditions */
(PID.TID 0000.0001)                   F
(PID.TID 0000.0001)     ;
(PID.TID 0000.0001) SEAICE_clipVeloctities = /* impose max. vels. */
(PID.TID 0000.0001)                   F
(PID.TID 0000.0001)     ;
(PID.TID 0000.0001) useHB87stressCoupling  = /* altern. ice-ocean stress */
(PID.TID 0000.0001)                   F
(PID.TID 0000.0001)     ;
(PID.TID 0000.0001) SEAICEuseEVP      = /* use EVP solver */
(PID.TID 0000.0001)                   F
(PID.TID 0000.0001)     ;
(PID.TID 0000.0001) SEAICE_elasticParm= /* EVP elastic parameter */
(PID.TID 0000.0001)                 3.333333333333333E-01
(PID.TID 0000.0001)     ;
(PID.TID 0000.0001) SEAICE_evpTauRelax= /* EVP relaxation timescale */
(PID.TID 0000.0001)                -1.000000000000000E+00
(PID.TID 0000.0001)     ;
(PID.TID 0000.0001) SEAICE_evpDampC   = /* EVP damping parameter */
(PID.TID 0000.0001)                -1.000000000000000E+00
(PID.TID 0000.0001)     ;
(PID.TID 0000.0001) SEAICE_maskRHS    = /* mask RHS of solver */
(PID.TID 0000.0001)                   F
(PID.TID 0000.0001)     ;
(PID.TID 0000.0001) LSR_mixIniGuess = /* mix free-drift sol. into LSR initial Guess */
(PID.TID 0000.0001)                       0
(PID.TID 0000.0001)     ;
(PID.TID 0000.0001) SOLV_MAX_ITERS    = /* max. number of LSR solver steps */
(PID.TID 0000.0001)                    1500
(PID.TID 0000.0001)     ;
(PID.TID 0000.0001) LSR_ERROR         = /* sets accuracy of LSR solver */
(PID.TID 0000.0001)                 1.000000000000000E-06
(PID.TID 0000.0001)     ;
(PID.TID 0000.0001) SOLV_NCHECK       = /* test interval for LSR solver */
(PID.TID 0000.0001)                       2
(PID.TID 0000.0001)     ;
(PID.TID 0000.0001) NPSEUDOTIMESTEPS  = /* num. of extra pseudo time steps */
(PID.TID 0000.0001)                       2
(PID.TID 0000.0001)     ;
(PID.TID 0000.0001) SEAICE_deltaTdyn  = /* dynamic timestep */
(PID.TID 0000.0001)                 3.600000000000000E+03
(PID.TID 0000.0001)     ;
(PID.TID 0000.0001) SEAICE_deltaTevp  = /* EVP timestep */
(PID.TID 0000.0001)                 1.234567000000000E+05
(PID.TID 0000.0001)     ;
(PID.TID 0000.0001) SEAICE_deltaTtherm= /* thermodynamic timestep */
(PID.TID 0000.0001)                 3.600000000000000E+03
(PID.TID 0000.0001)     ;
(PID.TID 0000.0001) usePW79thermodynamics  = /* default 0-layer TD */
(PID.TID 0000.0001)                   T
(PID.TID 0000.0001)     ;
(PID.TID 0000.0001) SEAICEareaFormula = /* ice cover formula */
(PID.TID 0000.0001)                       1
(PID.TID 0000.0001)     ;
(PID.TID 0000.0001) SEAICErestoreUnderIce  = /* restore T and S under ice */
(PID.TID 0000.0001)                   F
(PID.TID 0000.0001)     ;
(PID.TID 0000.0001) SEAICEadvHeff = /* advect effective ice thickness */
(PID.TID 0000.0001)                   T
(PID.TID 0000.0001)     ;
(PID.TID 0000.0001) SEAICEadvArea = /* advect fractional ice area */
(PID.TID 0000.0001)                   T
(PID.TID 0000.0001)     ;
(PID.TID 0000.0001) SEAICEadvSnow = /* advect snow layer together with ice */
(PID.TID 0000.0001)                   T
(PID.TID 0000.0001)     ;
(PID.TID 0000.0001) SEAICEadvSalt = /* advect salinity together with ice */
(PID.TID 0000.0001)                   F
(PID.TID 0000.0001)     ;
(PID.TID 0000.0001) SEAICEadvAge = /* advect age together with ice */
(PID.TID 0000.0001)                   F
(PID.TID 0000.0001)     ;
(PID.TID 0000.0001) SEAICEuseFlooding = /* turn submerged snow into ice */
(PID.TID 0000.0001)                   T
(PID.TID 0000.0001)     ;
(PID.TID 0000.0001) IMAX_TICE         = /* iterations for ice heat budget */
(PID.TID 0000.0001)                      10
(PID.TID 0000.0001)     ;
(PID.TID 0000.0001) SEAICEadvScheme   = /* advection scheme for ice */
(PID.TID 0000.0001)                       2
(PID.TID 0000.0001)     ;
(PID.TID 0000.0001) SEAICEuseFluxForm = /* advection in FV flux form */
(PID.TID 0000.0001)                   F
(PID.TID 0000.0001)     ;
(PID.TID 0000.0001) SEAICEadvSchArea   = /* advection scheme for area */
(PID.TID 0000.0001)                       2
(PID.TID 0000.0001)     ;
(PID.TID 0000.0001) SEAICEadvSchHeff   = /* advection scheme for thickness */
(PID.TID 0000.0001)                       2
(PID.TID 0000.0001)     ;
(PID.TID 0000.0001) SEAICEadvSchSnow   = /* advection scheme for snow */
(PID.TID 0000.0001)                       2
(PID.TID 0000.0001)     ;
(PID.TID 0000.0001) SEAICEdiffKhArea   = /* diffusivity (m^2/s) for area */
(PID.TID 0000.0001)                 0.000000000000000E+00
(PID.TID 0000.0001)     ;
(PID.TID 0000.0001) SEAICEdiffKhHeff   = /* diffusivity (m^2/s) for heff */
(PID.TID 0000.0001)                 0.000000000000000E+00
(PID.TID 0000.0001)     ;
(PID.TID 0000.0001) SEAICEdiffKhSnow   = /* diffusivity (m^2/s) for snow */
(PID.TID 0000.0001)                 0.000000000000000E+00
(PID.TID 0000.0001)     ;
(PID.TID 0000.0001) SEAICEdiffKhSalt   = /* diffusivity (m^2/s) for salt */
(PID.TID 0000.0001)                 0.000000000000000E+00
(PID.TID 0000.0001)     ;
(PID.TID 0000.0001) SEAICEdiffKhAge   = /* diffusivity (m^2/s) for age */
(PID.TID 0000.0001)                 0.000000000000000E+00
(PID.TID 0000.0001)     ;
(PID.TID 0000.0001) SEAICE_availHeatFrac = /* fraction used from melting */
(PID.TID 0000.0001)                 8.000000000000000E-01
(PID.TID 0000.0001)     ;
(PID.TID 0000.0001) SEAICE_gamma_t    = /* melting timescale due to warm ML*/
(PID.TID 0000.0001)                 1.234567000000000E+05
(PID.TID 0000.0001)     ;
(PID.TID 0000.0001) OCEAN_drag        = /* air-ocean drag coefficient */
(PID.TID 0000.0001)                 1.000000000000000E-03
(PID.TID 0000.0001)     ;
(PID.TID 0000.0001) SEAICE_drag       = /* air-ice drag coefficient */
(PID.TID 0000.0001)                 2.000000000000000E-03
(PID.TID 0000.0001)     ;
(PID.TID 0000.0001) SEAICE_waterDrag  = /* water-ice drag * density */
(PID.TID 0000.0001)                 5.500000000000000E+00
(PID.TID 0000.0001)     ;
(PID.TID 0000.0001) SEAICE_dryIceAlb  = /* winter albedo */
(PID.TID 0000.0001)                 7.500000000000000E-01
(PID.TID 0000.0001)     ;
(PID.TID 0000.0001) SEAICE_wetIceAlb  = /* summer albedo */
(PID.TID 0000.0001)                 6.600000000000000E-01
(PID.TID 0000.0001)     ;
(PID.TID 0000.0001) SEAICE_drySnowAlb = /* dry snow albedo */
(PID.TID 0000.0001)                 8.400000000000000E-01
(PID.TID 0000.0001)     ;
(PID.TID 0000.0001) SEAICE_wetSnowAlb = /* wet snow albedo */
(PID.TID 0000.0001)                 7.000000000000000E-01
(PID.TID 0000.0001)     ;
(PID.TID 0000.0001) HO                = /* demarcation ice thickness */
(PID.TID 0000.0001)                 5.000000000000000E-01
(PID.TID 0000.0001)     ;
(PID.TID 0000.0001) SEAICE_drag_south      = /* Southern Ocean SEAICE_drag */
(PID.TID 0000.0001)                 2.000000000000000E-03
(PID.TID 0000.0001)     ;
(PID.TID 0000.0001) SEAICE_waterDrag_south = /* Southern Ocean waterDrag */
(PID.TID 0000.0001)                 5.500000000000000E+00
(PID.TID 0000.0001)     ;
(PID.TID 0000.0001) SEAICE_dryIceAlb_south = /* Southern Ocean dryIceAlb */
(PID.TID 0000.0001)                 7.500000000000000E-01
(PID.TID 0000.0001)     ;
(PID.TID 0000.0001) SEAICE_wetIceAlb_south = /* Southern Ocean wetIceAlb */
(PID.TID 0000.0001)                 6.600000000000000E-01
(PID.TID 0000.0001)     ;
(PID.TID 0000.0001) SEAICE_drySnowAlb_south= /* Southern Ocean drySnowAlb */
(PID.TID 0000.0001)                 8.400000000000000E-01
(PID.TID 0000.0001)     ;
(PID.TID 0000.0001) SEAICE_wetSnowAlb_south= /* Southern Ocean wetSnowAlb */
(PID.TID 0000.0001)                 7.000000000000000E-01
(PID.TID 0000.0001)     ;
(PID.TID 0000.0001) HO_south               = /* Southern Ocean HO */
(PID.TID 0000.0001)                 5.000000000000000E-01
(PID.TID 0000.0001)     ;
(PID.TID 0000.0001) SEAICE_snow_emiss = /* snow emissivity */
(PID.TID 0000.0001)                 9.500000000000000E-01
(PID.TID 0000.0001)     ;
(PID.TID 0000.0001) SEAICE_ice_emiss = /* seaice emissivity */
(PID.TID 0000.0001)                 9.500000000000000E-01
(PID.TID 0000.0001)     ;
(PID.TID 0000.0001) SEAICE_cpAir      = /* heat capacity of air */
(PID.TID 0000.0001)                 1.005000000000000E+03
(PID.TID 0000.0001)     ;
(PID.TID 0000.0001) SEAICE_dalton     = /* constant dalton number */
(PID.TID 0000.0001)                 1.750000000000000E-03
(PID.TID 0000.0001)     ;
(PID.TID 0000.0001) SEAICE_lhEvap     = /* latent heat of evaporation */
(PID.TID 0000.0001)                 2.500000000000000E+06
(PID.TID 0000.0001)     ;
(PID.TID 0000.0001) SEAICE_lhFusion   = /* latent heat of fusion */
(PID.TID 0000.0001)                 3.340000000000000E+05
(PID.TID 0000.0001)     ;
(PID.TID 0000.0001) SEAICE_iceConduct = /* sea-ice conductivity */
(PID.TID 0000.0001)                 2.165600000000000E+00
(PID.TID 0000.0001)     ;
(PID.TID 0000.0001) SEAICE_snowConduct= /* snow conductivity */
(PID.TID 0000.0001)                 3.100000000000000E-01
(PID.TID 0000.0001)     ;
(PID.TID 0000.0001) SEAICE_snowThick  = /* cutoff snow thickness */
(PID.TID 0000.0001)                 1.500000000000000E-01
(PID.TID 0000.0001)     ;
(PID.TID 0000.0001) SEAICE_shortwave  = /* penetration shortwave radiation */
(PID.TID 0000.0001)                 3.000000000000000E-01
(PID.TID 0000.0001)     ;
(PID.TID 0000.0001) SEAICE_freeze     = /* freezing temp. of sea water */
(PID.TID 0000.0001)                -1.960000000000000E+00
(PID.TID 0000.0001)     ;
(PID.TID 0000.0001) DIFF1             = /* parameter used in advect.F [m/s] */
(PID.TID 0000.0001)                 4.000000000000000E-03
(PID.TID 0000.0001)     ;
(PID.TID 0000.0001) MAX_HEFF has no effect because SEAICE_CAP_HEFF is undefined
(PID.TID 0000.0001) MAX_HEFF          = /* maximum ice thickness */
(PID.TID 0000.0001)                 1.000000000000000E+01
(PID.TID 0000.0001)     ;
(PID.TID 0000.0001) MIN_ATEMP         = /* minimum air temperature */
(PID.TID 0000.0001)                -5.000000000000000E+01
(PID.TID 0000.0001)     ;
(PID.TID 0000.0001) MIN_LWDOWN        = /* minimum downward longwave */
(PID.TID 0000.0001)                 6.000000000000000E+01
(PID.TID 0000.0001)     ;
(PID.TID 0000.0001) MAX_TICE          = /* maximum ice temperature */
(PID.TID 0000.0001)                 3.000000000000000E+01
(PID.TID 0000.0001)     ;
(PID.TID 0000.0001) MIN_TICE          = /* minimum ice temperature */
(PID.TID 0000.0001)                -5.000000000000000E+01
(PID.TID 0000.0001)     ;
(PID.TID 0000.0001) SEAICE_EPS        = /* reduce derivative singularities */
(PID.TID 0000.0001)                 1.000000000000000E-08
(PID.TID 0000.0001)     ;
(PID.TID 0000.0001) SEAICE_initialHEFF= /* initial sea-ice thickness */
(PID.TID 0000.0001)                 1.000000000000000E+00
(PID.TID 0000.0001)     ;
(PID.TID 0000.0001) AreaFile = /* Initial ice concentration File */
(PID.TID 0000.0001)               ''
(PID.TID 0000.0001)     ;
(PID.TID 0000.0001) HeffFile = /* Initial effective ice thickness File */
(PID.TID 0000.0001)               ''
(PID.TID 0000.0001)     ;
(PID.TID 0000.0001) uIceFile = /* Initial U-ice velocity File */
(PID.TID 0000.0001)               ''
(PID.TID 0000.0001)     ;
(PID.TID 0000.0001) vIceFile = /* Initial V-ice velocity File */
(PID.TID 0000.0001)               ''
(PID.TID 0000.0001)     ;
(PID.TID 0000.0001) SEAICEwriteState  = /* write sea ice state to file */
(PID.TID 0000.0001)                   T
(PID.TID 0000.0001)     ;
(PID.TID 0000.0001) SEAICE_monFreq  = /* monitor frequency */
(PID.TID 0000.0001)                 1.000000000000000E+00
(PID.TID 0000.0001)     ;
(PID.TID 0000.0001) SEAICE_dumpFreq   = /* dump frequency */
(PID.TID 0000.0001)                 0.000000000000000E+00
(PID.TID 0000.0001)     ;
(PID.TID 0000.0001) SEAICE_taveFreq   = /* time-averaging frequency */
(PID.TID 0000.0001)                 3.600000000000000E+04
(PID.TID 0000.0001)     ;
(PID.TID 0000.0001) SEAICE_mon_stdio  = /* write monitor to std-outp */
(PID.TID 0000.0001)                   T
(PID.TID 0000.0001)     ;
(PID.TID 0000.0001) SEAICE_dump_mdsio = /* write snap-shot   using MDSIO */
(PID.TID 0000.0001)                   T
(PID.TID 0000.0001)     ;
(PID.TID 0000.0001) SEAICE_tave_mdsio = /* write TimeAverage using MDSIO */
(PID.TID 0000.0001)                   T
(PID.TID 0000.0001)     ;
(PID.TID 0000.0001) SEAICE_mon_mnc    = /* write monitor to netcdf file */
(PID.TID 0000.0001)                   F
(PID.TID 0000.0001)     ;
(PID.TID 0000.0001) SEAICE_dump_mnc   = /* write snap-shot   using MNC */
(PID.TID 0000.0001)                   F
(PID.TID 0000.0001)     ;
(PID.TID 0000.0001) SEAICE_tave_mnc   = /* write TimeAverage using MNC */
(PID.TID 0000.0001)                   F
(PID.TID 0000.0001)     ;
(PID.TID 0000.0001) // =======================================================
(PID.TID 0000.0001) // Seaice configuration (SEAICE_PARM01) >>> END <<<
(PID.TID 0000.0001) // =======================================================
(PID.TID 0000.0001) OPTIM_READPARMS: opening data.optim
(PID.TID 0000.0001)  OPEN_COPY_DATA_FILE: opening file data.optim
(PID.TID 0000.0001) // =======================================================
(PID.TID 0000.0001) // Parameter file "data.optim"
(PID.TID 0000.0001) // =======================================================
(PID.TID 0000.0001) >#
(PID.TID 0000.0001) ># ********************************
(PID.TID 0000.0001) ># Off-line optimization parameters
(PID.TID 0000.0001) ># ********************************
(PID.TID 0000.0001) > &OPTIM
(PID.TID 0000.0001) > optimcycle=0,
(PID.TID 0000.0001) > /
(PID.TID 0000.0001) 
(PID.TID 0000.0001) OPTIM_READPARMS: finished reading data.optim
(PID.TID 0000.0001) CTRL_READPARMS: opening data.ctrl
(PID.TID 0000.0001)  OPEN_COPY_DATA_FILE: opening file data.ctrl
(PID.TID 0000.0001) // =======================================================
(PID.TID 0000.0001) // Parameter file "data.ctrl"
(PID.TID 0000.0001) // =======================================================
(PID.TID 0000.0001) >#
(PID.TID 0000.0001) >#
(PID.TID 0000.0001) ># *********************
(PID.TID 0000.0001) ># ECCO controlvariables
(PID.TID 0000.0001) ># *********************
(PID.TID 0000.0001) > &CTRL_NML
(PID.TID 0000.0001) ># doSinglePrecTapelev=.TRUE.,
(PID.TID 0000.0001) > xx_theta_file      ='xx_theta',
(PID.TID 0000.0001) > xx_salt_file       ='xx_salt',
(PID.TID 0000.0001) > xx_siarea_file     ='xx_siarea',
(PID.TID 0000.0001) > xx_siheff_file     ='xx_siheff',
(PID.TID 0000.0001) > xx_sihsnow_file    ='xx_sihsnow',
(PID.TID 0000.0001) >#
(PID.TID 0000.0001) > xx_hfluxstartdate1 = 19790101,
(PID.TID 0000.0001) > xx_hfluxstartdate2 = 000000,
(PID.TID 0000.0001) > xx_hfluxperiod     = 864000.0,
(PID.TID 0000.0001) > xx_hflux_file      = 'xx_hfl',
(PID.TID 0000.0001) >#
(PID.TID 0000.0001) > xx_sfluxstartdate1 = 19790101,
(PID.TID 0000.0001) > xx_sfluxstartdate2 = 000000,
(PID.TID 0000.0001) > xx_sfluxperiod     = 864000.0,
(PID.TID 0000.0001) > xx_sflux_file      = 'xx_sfl',
(PID.TID 0000.0001) >#
(PID.TID 0000.0001) > xx_tauustartdate1 = 19790101,
(PID.TID 0000.0001) > xx_tauustartdate2 = 000000,
(PID.TID 0000.0001) > xx_tauuperiod     = 864000.0,
(PID.TID 0000.0001) > xx_tauu_file      = 'xx_tauu',
(PID.TID 0000.0001) >#
(PID.TID 0000.0001) > xx_tauvstartdate1 = 19790101,
(PID.TID 0000.0001) > xx_tauvstartdate2 = 000000,
(PID.TID 0000.0001) > xx_tauvperiod     = 864000.0,
(PID.TID 0000.0001) > xx_tauv_file      = 'xx_tauv',
(PID.TID 0000.0001) >#
(PID.TID 0000.0001) > xx_atempstartdate1 = 19790101,
(PID.TID 0000.0001) > xx_atempstartdate2 = 000000,
(PID.TID 0000.0001) > xx_atempperiod     = 864000.0,
(PID.TID 0000.0001) > xx_atemp_file      = 'xx_atemp',
(PID.TID 0000.0001) >#
(PID.TID 0000.0001) > xx_aqhstartdate1 = 19790101,
(PID.TID 0000.0001) > xx_aqhstartdate2 = 000000,
(PID.TID 0000.0001) > xx_aqhperiod     = 864000.0,
(PID.TID 0000.0001) > xx_aqh_file      = 'xx_aqh',
(PID.TID 0000.0001) >#
(PID.TID 0000.0001) > xx_precipstartdate1 = 19790101,
(PID.TID 0000.0001) > xx_precipstartdate2 = 000000,
(PID.TID 0000.0001) > xx_precipperiod     = 864000.0,
(PID.TID 0000.0001) > xx_precip_file      = 'xx_precip',
(PID.TID 0000.0001) >#
(PID.TID 0000.0001) > xx_swfluxstartdate1 = 19790101,
(PID.TID 0000.0001) > xx_swfluxstartdate2 = 000000,
(PID.TID 0000.0001) > xx_swfluxperiod     = 864000.0,
(PID.TID 0000.0001) > xx_swflux_file      = 'xx_swflux',
(PID.TID 0000.0001) >#
(PID.TID 0000.0001) > xx_swdownstartdate1 = 19790101,
(PID.TID 0000.0001) > xx_swdownstartdate2 = 000000,
(PID.TID 0000.0001) > xx_swdownperiod     = 864000.0,
(PID.TID 0000.0001) > xx_swdown_file      = 'xx_swdown',
(PID.TID 0000.0001) >#
(PID.TID 0000.0001) > xx_lwfluxstartdate1 = 19790101,
(PID.TID 0000.0001) > xx_lwfluxstartdate2 = 000000,
(PID.TID 0000.0001) > xx_lwfluxperiod     = 864000.0,
(PID.TID 0000.0001) > xx_lwflux_file      = 'xx_lwflux',
(PID.TID 0000.0001) >#
(PID.TID 0000.0001) > xx_lwdownstartdate1 = 19790101,
(PID.TID 0000.0001) > xx_lwdownstartdate2 = 000000,
(PID.TID 0000.0001) > xx_lwdownperiod     = 864000.0,
(PID.TID 0000.0001) > xx_lwdown_file      = 'xx_lwdown',
(PID.TID 0000.0001) >#
(PID.TID 0000.0001) > xx_evapstartdate1 = 19790101,
(PID.TID 0000.0001) > xx_evapstartdate2 = 000000,
(PID.TID 0000.0001) > xx_evapperiod     = 864000.0,
(PID.TID 0000.0001) > xx_evap_file      = 'xx_evap',
(PID.TID 0000.0001) >#
(PID.TID 0000.0001) > xx_snowprecipstartdate1 = 19790101,
(PID.TID 0000.0001) > xx_snowprecipstartdate2 = 000000,
(PID.TID 0000.0001) > xx_snowprecipperiod     = 864000.0,
(PID.TID 0000.0001) > xx_snowprecip_file      = 'xx_snowprecip',
(PID.TID 0000.0001) >#
(PID.TID 0000.0001) > xx_apressurestartdate1 = 19790101,
(PID.TID 0000.0001) > xx_apressurestartdate2 = 000000,
(PID.TID 0000.0001) > xx_apressureperiod     = 864000.0,
(PID.TID 0000.0001) > xx_apressure_file      = 'xx_apressure',
(PID.TID 0000.0001) >#
(PID.TID 0000.0001) > xx_uwindstartdate1 = 19790101,
(PID.TID 0000.0001) > xx_uwindstartdate2 = 000000,
(PID.TID 0000.0001) > xx_uwindperiod     = 864000.0,
(PID.TID 0000.0001) > xx_uwind_file      = 'xx_uwind',
(PID.TID 0000.0001) >#
(PID.TID 0000.0001) > xx_vwindstartdate1 = 19790101,
(PID.TID 0000.0001) > xx_vwindstartdate2 = 000000,
(PID.TID 0000.0001) > xx_vwindperiod     = 864000.0,
(PID.TID 0000.0001) > xx_vwind_file      = 'xx_vwind',
(PID.TID 0000.0001) > /
(PID.TID 0000.0001) >#
(PID.TID 0000.0001) ># *********************
(PID.TID 0000.0001) ># names for ctrl_pack/unpack
(PID.TID 0000.0001) ># *********************
(PID.TID 0000.0001) > &CTRL_PACKNAMES
(PID.TID 0000.0001) > /
(PID.TID 0000.0001) 
(PID.TID 0000.0001) CTRL_READPARMS: finished reading data.ctrl
(PID.TID 0000.0001) COST_READPARMS: opening data.cost
(PID.TID 0000.0001)  OPEN_COPY_DATA_FILE: opening file data.cost
(PID.TID 0000.0001) // =======================================================
(PID.TID 0000.0001) // Parameter file "data.cost"
(PID.TID 0000.0001) // =======================================================
(PID.TID 0000.0001) >#
(PID.TID 0000.0001) >#
(PID.TID 0000.0001) ># ******************
(PID.TID 0000.0001) ># cost function
(PID.TID 0000.0001) ># ******************
(PID.TID 0000.0001) > &COST_NML
(PID.TID 0000.0001) > /
(PID.TID 0000.0001) 
(PID.TID 0000.0001) COST_READPARMS: finished reading data.cost
(PID.TID 0000.0001) GRDCHK_READPARMS: opening data.grdchk
(PID.TID 0000.0001)  OPEN_COPY_DATA_FILE: opening file data.grdchk
(PID.TID 0000.0001) // =======================================================
(PID.TID 0000.0001) // Parameter file "data.grdchk"
(PID.TID 0000.0001) // =======================================================
(PID.TID 0000.0001) >
(PID.TID 0000.0001) ># *******************
(PID.TID 0000.0001) ># ECCO gradient check
(PID.TID 0000.0001) ># *******************
(PID.TID 0000.0001) > &GRDCHK_NML
(PID.TID 0000.0001) > grdchk_eps       = 1.d-4,
(PID.TID 0000.0001) ># nbeg             = 4,
(PID.TID 0000.0001) > iGloPos          = 4,
(PID.TID 0000.0001) > jGloPos          = 8,
(PID.TID 0000.0001) > kGloPos          = 1,
(PID.TID 0000.0001) > nstep            = 1,
(PID.TID 0000.0001) > nend             = 4,
(PID.TID 0000.0001) > grdchkvarindex   = 7,
(PID.TID 0000.0001) > /
(PID.TID 0000.0001) 
(PID.TID 0000.0001) GRDCHK_READPARMS: finished reading data.grdchk
(PID.TID 0000.0001) 
(PID.TID 0000.0001) // =======================================================
(PID.TID 0000.0001) // Gradient check configuration  >>> START <<<
(PID.TID 0000.0001) // =======================================================
(PID.TID 0000.0001) 
(PID.TID 0000.0001)   eps:                              0.100E-03
(PID.TID 0000.0001)   First location:                           0
(PID.TID 0000.0001)   Last location:                            4
(PID.TID 0000.0001)   Increment:                                1
(PID.TID 0000.0001)   grdchkWhichProc:                          0
(PID.TID 0000.0001)   iLocTile =       1  ,    jLocTile =       1
(PID.TID 0000.0001) 
(PID.TID 0000.0001) // =======================================================
(PID.TID 0000.0001) // Gradient check configuration  >>> END <<<
(PID.TID 0000.0001) // =======================================================
(PID.TID 0000.0001) 
(PID.TID 0000.0001) ECCO_READPARMS: opening data.ecco
(PID.TID 0000.0001)  OPEN_COPY_DATA_FILE: opening file data.ecco
(PID.TID 0000.0001) // =======================================================
(PID.TID 0000.0001) // Parameter file "data.ecco"
(PID.TID 0000.0001) // =======================================================
(PID.TID 0000.0001) >#
(PID.TID 0000.0001) >#
(PID.TID 0000.0001) ># ******************
(PID.TID 0000.0001) ># ECCO cost function
(PID.TID 0000.0001) ># ******************
(PID.TID 0000.0001) > &ECCO_COST_NML
(PID.TID 0000.0001) > data_errfile ='data.err',
(PID.TID 0000.0001) > tbarfile   = 'tbar',
(PID.TID 0000.0001) > sbarfile   = 'sbar',
(PID.TID 0000.0001) > psbarfile  = 'psbar',
(PID.TID 0000.0001) >#
(PID.TID 0000.0001) > topexstartdate1 = 19790101,
(PID.TID 0000.0001) > topexstartdate2 = 00000,
(PID.TID 0000.0001) > topexperiod     = 2635200.0,
(PID.TID 0000.0001) > topexfile       = 'labsea_TP_fields',
(PID.TID 0000.0001) > topexmeanfile   = 'labsea_TP_mean',
(PID.TID 0000.0001) >#
(PID.TID 0000.0001) > ersfile       = 'labsea_ERS_fields',
(PID.TID 0000.0001) > ersstartdate1 = 19790101,
(PID.TID 0000.0001) > ersstartdate2 = 00000,
(PID.TID 0000.0001) > ersperiod     = 2635200.0,
(PID.TID 0000.0001) >#
(PID.TID 0000.0001) > sststartdate1        = 19790101,
(PID.TID 0000.0001) > sststartdate2        = 00000,
(PID.TID 0000.0001) > sstdatfile           = 'labsea_SST_fields',
(PID.TID 0000.0001) > tdatfile             = 'labsea_Lev.ptmp',
(PID.TID 0000.0001) > sdatfile             = 'labsea_Lev.salt',
(PID.TID 0000.0001) > ssh_errfile          = 'labsea_ssh.err',
(PID.TID 0000.0001) > geoid_errfile        = 'labsea_geoid.err',
(PID.TID 0000.0001) > geoid_covariancefile = ' ',
(PID.TID 0000.0001) >#
(PID.TID 0000.0001) > hflux_errfile        = ' ',
(PID.TID 0000.0001) > sflux_errfile        = ' ',
(PID.TID 0000.0001) > tauu_errfile         = ' ',
(PID.TID 0000.0001) > tauv_errfile         = ' ',
(PID.TID 0000.0001) > atemp_errfile        = ' ',
(PID.TID 0000.0001) > aqh_errfile          = ' ',
(PID.TID 0000.0001) > precip_errfile       = ' ',
(PID.TID 0000.0001) > swflux_errfile       = ' ',
(PID.TID 0000.0001) > swdown_errfile       = ' ',
(PID.TID 0000.0001) > uwind_errfile        = ' ',
(PID.TID 0000.0001) > vwind_errfile        = ' ',
(PID.TID 0000.0001) >#
(PID.TID 0000.0001) > whflux0              = 20.,
(PID.TID 0000.0001) > wsflux0              = 3.0E-8,
(PID.TID 0000.0001) > wtau0                = 2.0E-2,
(PID.TID 0000.0001) > watemp0              = 0.5,
(PID.TID 0000.0001) > waqh0                = 5.E-4,
(PID.TID 0000.0001) > wprecip0             = 1.E-8,
(PID.TID 0000.0001) > wswflux0             = 20.,
(PID.TID 0000.0001) > wswdown0             = 20.,
(PID.TID 0000.0001) > wlwflux0             = 20.,
(PID.TID 0000.0001) > wlwdown0             = 20.,
(PID.TID 0000.0001) > wwind0               = 1.0,
(PID.TID 0000.0001) > wevap0               = 1.0,
(PID.TID 0000.0001) > wsnowprecip0         = 1.0,
(PID.TID 0000.0001) > wapressure0          = 1.0,
(PID.TID 0000.0001) >#
(PID.TID 0000.0001) > wmean_hflux          = 30.,
(PID.TID 0000.0001) > wmean_sflux          = 1.6E-8,
(PID.TID 0000.0001) > wmean_tau            = 0.1,
(PID.TID 0000.0001) > wmean_atemp          = 1.,
(PID.TID 0000.0001) > wmean_aqh            = 1.E-3,
(PID.TID 0000.0001) > wmean_precip         = 1.5E-8,
(PID.TID 0000.0001) > wmean_swflux         = 20.,
(PID.TID 0000.0001) > wmean_swdown         = 20.,
(PID.TID 0000.0001) > wmean_lwdown         = 20.,
(PID.TID 0000.0001) > wmean_lwflux         = 20.,
(PID.TID 0000.0001) > wmean_wind           = 2.0,
(PID.TID 0000.0001) > wmean_evap           = 1.0,
(PID.TID 0000.0001) > wmean_snowprecip     = 1.0,
(PID.TID 0000.0001) > wmean_apressure      = 1.0,
(PID.TID 0000.0001) >#
(PID.TID 0000.0001) > mult_hmean = 1.,
(PID.TID 0000.0001) > mult_h     = 1.,
(PID.TID 0000.0001) > mult_temp  = 1.,
(PID.TID 0000.0001) > mult_salt  = 1.,
(PID.TID 0000.0001) > mult_sst   = 1.,
(PID.TID 0000.0001) > mult_hflux = 0.,
(PID.TID 0000.0001) > mult_sflux = 0.,
(PID.TID 0000.0001) > mult_tauu  = 0.,
(PID.TID 0000.0001) > mult_tauv  = 0.,
(PID.TID 0000.0001) > mult_atemp = 0.,
(PID.TID 0000.0001) > mult_aqh   = 0.,
(PID.TID 0000.0001) > mult_precip= 0.,
(PID.TID 0000.0001) > mult_swflux= 0.,
(PID.TID 0000.0001) > mult_swdown= 0.,
(PID.TID 0000.0001) > mult_uwind = 0.,
(PID.TID 0000.0001) > mult_vwind = 0.,
(PID.TID 0000.0001) >#
(PID.TID 0000.0001) > cost_iprec  = 64,
(PID.TID 0000.0001) > cost_yftype = 'RL',
(PID.TID 0000.0001) > /
(PID.TID 0000.0001) 
(PID.TID 0000.0001) ECCO_READPARMS: finished reading #1: ecco_cost_nml
(PID.TID 0000.0001) ECCO_READPARMS: start assigning cost dates
(PID.TID 0000.0001) ECCO_READPARMS: end assigning cost dates
(PID.TID 0000.0001) ECCO_READPARMS: done
(PID.TID 0000.0001) SET_PARMS: done
(PID.TID 0000.0001) Enter INI_VERTICAL_GRID: setInterFDr=    T ; setCenterDr=    F
(PID.TID 0000.0001) %MON XC_max                       =   3.1900000000000E+02
(PID.TID 0000.0001) %MON XC_min                       =   2.8100000000000E+02
(PID.TID 0000.0001) %MON XC_mean                      =   3.0000000000000E+02
(PID.TID 0000.0001) %MON XC_sd                        =   1.1532562594671E+01
(PID.TID 0000.0001) %MON XG_max                       =   3.1800000000000E+02
(PID.TID 0000.0001) %MON XG_min                       =   2.8000000000000E+02
(PID.TID 0000.0001) %MON XG_mean                      =   2.9900000000000E+02
(PID.TID 0000.0001) %MON XG_sd                        =   1.1532562594671E+01
(PID.TID 0000.0001) %MON DXC_max                      =   1.5166951523772E+05
(PID.TID 0000.0001) %MON DXC_min                      =   5.0026831972764E+04
(PID.TID 0000.0001) %MON DXC_mean                     =   1.0305926321463E+05
(PID.TID 0000.0001) %MON DXC_sd                       =   3.1375805318756E+04
(PID.TID 0000.0001) %MON DXF_max                      =   1.5166951523772E+05
(PID.TID 0000.0001) %MON DXF_min                      =   5.0026831972764E+04
(PID.TID 0000.0001) %MON DXF_mean                     =   1.0305926321463E+05
(PID.TID 0000.0001) %MON DXF_sd                       =   3.1375805318756E+04
(PID.TID 0000.0001) %MON DXG_max                      =   1.5448497309243E+05
(PID.TID 0000.0001) %MON DXG_min                      =   5.3800974869835E+04
(PID.TID 0000.0001) %MON DXG_mean                     =   1.0642630187324E+05
(PID.TID 0000.0001) %MON DXG_sd                       =   3.1081829200899E+04
(PID.TID 0000.0001) %MON DXV_max                      =   1.5448497309243E+05
(PID.TID 0000.0001) %MON DXV_min                      =   5.3800974869835E+04
(PID.TID 0000.0001) %MON DXV_mean                     =   1.0642630187324E+05
(PID.TID 0000.0001) %MON DXV_sd                       =   3.1081829200899E+04
(PID.TID 0000.0001) %MON YC_max                       =   7.7000000000000E+01
(PID.TID 0000.0001) %MON YC_min                       =   4.7000000000000E+01
(PID.TID 0000.0001) %MON YC_mean                      =   6.2000000000000E+01
(PID.TID 0000.0001) %MON YC_sd                        =   9.2195444572929E+00
(PID.TID 0000.0001) %MON YG_max                       =   7.6000000000000E+01
(PID.TID 0000.0001) %MON YG_min                       =   4.6000000000000E+01
(PID.TID 0000.0001) %MON YG_mean                      =   6.1000000000000E+01
(PID.TID 0000.0001) %MON YG_sd                        =   9.2195444572929E+00
(PID.TID 0000.0001) %MON DYC_max                      =   2.2238985328912E+05
(PID.TID 0000.0001) %MON DYC_min                      =   2.2238985328912E+05
(PID.TID 0000.0001) %MON DYC_mean                     =   2.2238985328912E+05
(PID.TID 0000.0001) %MON DYC_sd                       =   1.4551915228367E-10
(PID.TID 0000.0001) %MON DYF_max                      =   2.2238985328912E+05
(PID.TID 0000.0001) %MON DYF_min                      =   2.2238985328912E+05
(PID.TID 0000.0001) %MON DYF_mean                     =   2.2238985328912E+05
(PID.TID 0000.0001) %MON DYF_sd                       =   1.4551915228367E-10
(PID.TID 0000.0001) %MON DYG_max                      =   2.2238985328912E+05
(PID.TID 0000.0001) %MON DYG_min                      =   2.2238985328912E+05
(PID.TID 0000.0001) %MON DYG_mean                     =   2.2238985328912E+05
(PID.TID 0000.0001) %MON DYG_sd                       =   1.4551915228367E-10
(PID.TID 0000.0001) %MON DYU_max                      =   2.2238985328912E+05
(PID.TID 0000.0001) %MON DYU_min                      =   2.2238985328912E+05
(PID.TID 0000.0001) %MON DYU_mean                     =   2.2238985328912E+05
(PID.TID 0000.0001) %MON DYU_sd                       =   1.4551915228367E-10
(PID.TID 0000.0001) %MON RA_max                       =   3.3728048822756E+10
(PID.TID 0000.0001) %MON RA_min                       =   1.1124894996734E+10
(PID.TID 0000.0001) %MON RA_mean                      =   2.2918170839356E+10
(PID.TID 0000.0001) %MON RA_sd                        =   6.9773064942263E+09
(PID.TID 0000.0001) %MON RAW_max                      =   3.3728048822756E+10
(PID.TID 0000.0001) %MON RAW_min                      =   1.1124894996734E+10
(PID.TID 0000.0001) %MON RAW_mean                     =   2.2918170839356E+10
(PID.TID 0000.0001) %MON RAW_sd                       =   6.9773064942263E+09
(PID.TID 0000.0001) %MON RAS_max                      =   3.4354146294179E+10
(PID.TID 0000.0001) %MON RAS_min                      =   1.1964183470077E+10
(PID.TID 0000.0001) %MON RAS_mean                     =   2.3666928057229E+10
(PID.TID 0000.0001) %MON RAS_sd                       =   6.9119325076329E+09
(PID.TID 0000.0001) %MON RAZ_max                      =   3.4354146294179E+10
(PID.TID 0000.0001) %MON RAZ_min                      =   1.1964183470077E+10
(PID.TID 0000.0001) %MON RAZ_mean                     =   2.3666928057229E+10
(PID.TID 0000.0001) %MON RAZ_sd                       =   6.9119325076329E+09
(PID.TID 0000.0001) %MON AngleCS_max                  =   1.0000000000000E+00
(PID.TID 0000.0001) %MON AngleCS_min                  =   1.0000000000000E+00
(PID.TID 0000.0001) %MON AngleCS_mean                 =   1.0000000000000E+00
(PID.TID 0000.0001) %MON AngleCS_sd                   =   0.0000000000000E+00
(PID.TID 0000.0001) %MON AngleSN_max                  =   0.0000000000000E+00
(PID.TID 0000.0001) %MON AngleSN_min                  =   0.0000000000000E+00
(PID.TID 0000.0001) %MON AngleSN_mean                 =   0.0000000000000E+00
(PID.TID 0000.0001) %MON AngleSN_sd                   =   0.0000000000000E+00
(PID.TID 0000.0001) GAD_INIT_FIXED: GAD_OlMinSize=  2  0  1
(PID.TID 0000.0001) 
(PID.TID 0000.0001) // ===================================
(PID.TID 0000.0001) // GAD parameters :
(PID.TID 0000.0001) // ===================================
(PID.TID 0000.0001) tempAdvScheme =   /* Temp. Horiz.Advection scheme selector */
(PID.TID 0000.0001)                      30
(PID.TID 0000.0001)     ;
(PID.TID 0000.0001) tempVertAdvScheme =   /* Temp. Vert. Advection scheme selector */
(PID.TID 0000.0001)                      30
(PID.TID 0000.0001)     ;
(PID.TID 0000.0001) tempMultiDimAdvec =   /* use Muti-Dim Advec method for Temp */
(PID.TID 0000.0001)                   T
(PID.TID 0000.0001)     ;
(PID.TID 0000.0001) tempSOM_Advection = /* use 2nd Order Moment Advection for Temp */
(PID.TID 0000.0001)                   F
(PID.TID 0000.0001)     ;
(PID.TID 0000.0001) AdamsBashforthGt = /* apply Adams-Bashforth extrapolation on Gt */
(PID.TID 0000.0001)                   F
(PID.TID 0000.0001)     ;
(PID.TID 0000.0001) AdamsBashforth_T = /* apply Adams-Bashforth extrapolation on Temp */
(PID.TID 0000.0001)                   F
(PID.TID 0000.0001)     ;
(PID.TID 0000.0001) saltAdvScheme =   /* Salt. Horiz.advection scheme selector */
(PID.TID 0000.0001)                      30
(PID.TID 0000.0001)     ;
(PID.TID 0000.0001) saltVertAdvScheme =   /* Salt. Vert. Advection scheme selector */
(PID.TID 0000.0001)                      30
(PID.TID 0000.0001)     ;
(PID.TID 0000.0001) saltMultiDimAdvec =   /* use Muti-Dim Advec method for Salt */
(PID.TID 0000.0001)                   T
(PID.TID 0000.0001)     ;
(PID.TID 0000.0001) saltSOM_Advection = /* use 2nd Order Moment Advection for Salt */
(PID.TID 0000.0001)                   F
(PID.TID 0000.0001)     ;
(PID.TID 0000.0001) AdamsBashforthGs = /* apply Adams-Bashforth extrapolation on Gs */
(PID.TID 0000.0001)                   F
(PID.TID 0000.0001)     ;
(PID.TID 0000.0001) AdamsBashforth_S = /* apply Adams-Bashforth extrapolation on Salt */
(PID.TID 0000.0001)                   F
(PID.TID 0000.0001)     ;
(PID.TID 0000.0001) // ===================================
(PID.TID 0000.0001) 
(PID.TID 0000.0001) // =======================================================
(PID.TID 0000.0001) // External forcing (EXF) configuration >>> START <<<
(PID.TID 0000.0001) // =======================================================
(PID.TID 0000.0001) 
(PID.TID 0000.0001)  EXF general parameters:
(PID.TID 0000.0001) 
(PID.TID 0000.0001) exf_iprec = /* exf file precision */
(PID.TID 0000.0001)                      32
(PID.TID 0000.0001)     ;
(PID.TID 0000.0001) useExfYearlyFields = /* add extension _YEAR to input file names */
(PID.TID 0000.0001)                   F
(PID.TID 0000.0001)     ;
(PID.TID 0000.0001) twoDigitYear = /* use 2-digit year extension */
(PID.TID 0000.0001)                   F
(PID.TID 0000.0001)     ;
(PID.TID 0000.0001) exf_verbose = /* print more messages to STDOUT */
(PID.TID 0000.0001)                   F
(PID.TID 0000.0001)     ;
(PID.TID 0000.0001) useExfCheckRange = /* check for fields range */
(PID.TID 0000.0001)                   T
(PID.TID 0000.0001)     ;
(PID.TID 0000.0001) exf_monFreq = /* EXF monitor frequency [ s ] */
(PID.TID 0000.0001)                 1.000000000000000E+00
(PID.TID 0000.0001)     ;
(PID.TID 0000.0001) repeatPeriod = /* period for cycling forcing dataset [ s ] */
(PID.TID 0000.0001)                 3.162240000000000E+07
(PID.TID 0000.0001)     ;
(PID.TID 0000.0001) climTempFreeze= /* Minimum climatological temperature [deg.C] */
(PID.TID 0000.0001)                -1.900000000000000E+00
(PID.TID 0000.0001)     ;
(PID.TID 0000.0001) windStressMax = /* Maximum absolute windstress [ Pa ] */
(PID.TID 0000.0001)                 2.000000000000000E+00
(PID.TID 0000.0001)     ;
(PID.TID 0000.0001) stressIsOnCgrid = /* set u,v_stress on Arakawa C-grid */
(PID.TID 0000.0001)                   F
(PID.TID 0000.0001)     ;
(PID.TID 0000.0001) cen2kel = /* conversion of deg. Centigrade to Kelvin [K] */
(PID.TID 0000.0001)                 2.731500000000000E+02
(PID.TID 0000.0001)     ;
(PID.TID 0000.0001) gravity_mks= /* gravitational acceleration [m/s^2] */
(PID.TID 0000.0001)                 9.810000000000000E+00
(PID.TID 0000.0001)     ;
(PID.TID 0000.0001) atmrho =  /* mean atmospheric density [kg/m^3] */
(PID.TID 0000.0001)                 1.200000000000000E+00
(PID.TID 0000.0001)     ;
(PID.TID 0000.0001) atmcp =  /* mean atmospheric specific heat [J/kg/K] */
(PID.TID 0000.0001)                 1.005000000000000E+03
(PID.TID 0000.0001)     ;
(PID.TID 0000.0001) flamb =  /* latent heat of evaporation [J/kg] */
(PID.TID 0000.0001)                 2.500000000000000E+06
(PID.TID 0000.0001)     ;
(PID.TID 0000.0001) flami =  /* latent heat of pure-ice melting [J/kg] */
(PID.TID 0000.0001)                 3.340000000000000E+05
(PID.TID 0000.0001)     ;
(PID.TID 0000.0001) cvapor_fac = /* const. for Saturation calculation [?] */
(PID.TID 0000.0001)                 6.403800000000000E+05
(PID.TID 0000.0001)     ;
(PID.TID 0000.0001) cvapor_exp = /* const. for Saturation calculation [?] */
(PID.TID 0000.0001)                 5.107400000000000E+03
(PID.TID 0000.0001)     ;
(PID.TID 0000.0001) cvapor_fac_ice= /* const. for Saturation calculation [?] */
(PID.TID 0000.0001)                 1.163780000000000E+07
(PID.TID 0000.0001)     ;
(PID.TID 0000.0001) cvapor_exp_ice= /* const. for Saturation calculation [?] */
(PID.TID 0000.0001)                 5.897800000000000E+03
(PID.TID 0000.0001)     ;
(PID.TID 0000.0001) humid_fac = /* humidity coef. in virtual temp. [(kg/kg)^-1] */
(PID.TID 0000.0001)                 6.060000000000000E-01
(PID.TID 0000.0001)     ;
(PID.TID 0000.0001) gamma_blk = /* adiabatic lapse rate [?] */
(PID.TID 0000.0001)                 1.000000000000000E-02
(PID.TID 0000.0001)     ;
(PID.TID 0000.0001) saltsat = /* reduction of Qsat over salty water [-] */
(PID.TID 0000.0001)                 9.800000000000000E-01
(PID.TID 0000.0001)     ;
(PID.TID 0000.0001) noNegativeEvap = /* prevent negative Evaporation */
(PID.TID 0000.0001)                   F
(PID.TID 0000.0001)     ;
(PID.TID 0000.0001) sstExtrapol = /* extrapolation coeff from lev. 1 & 2 to surf [-] */
(PID.TID 0000.0001)                 0.000000000000000E+00
(PID.TID 0000.0001)     ;
(PID.TID 0000.0001) cDrag_1 = /* coef used in drag calculation [?] */
(PID.TID 0000.0001)                 2.700000000000000E-03
(PID.TID 0000.0001)     ;
(PID.TID 0000.0001) cDrag_2 = /* coef used in drag calculation [?] */
(PID.TID 0000.0001)                 1.420000000000000E-04
(PID.TID 0000.0001)     ;
(PID.TID 0000.0001) cDrag_3 = /* coef used in drag calculation [?] */
(PID.TID 0000.0001)                 7.640000000000000E-05
(PID.TID 0000.0001)     ;
(PID.TID 0000.0001) cStanton_1 = /* coef used in Stanton number calculation [?] */
(PID.TID 0000.0001)                 3.270000000000000E-02
(PID.TID 0000.0001)     ;
(PID.TID 0000.0001) cStanton_2 = /* coef used in Stanton number calculation [?] */
(PID.TID 0000.0001)                 1.800000000000000E-02
(PID.TID 0000.0001)     ;
(PID.TID 0000.0001) cDalton = /* coef used in Dalton number calculation [?] */
(PID.TID 0000.0001)                 3.460000000000000E-02
(PID.TID 0000.0001)     ;
(PID.TID 0000.0001) exf_scal_BulkCdn= /* Drag coefficient scaling factor [-] */
(PID.TID 0000.0001)                 1.000000000000000E+00
(PID.TID 0000.0001)     ;
(PID.TID 0000.0001) zolmin = /* minimum stability parameter [?] */
(PID.TID 0000.0001)                -1.000000000000000E+02
(PID.TID 0000.0001)     ;
(PID.TID 0000.0001) psim_fac = /* coef used in turbulent fluxes calculation [-] */
(PID.TID 0000.0001)                 5.000000000000000E+00
(PID.TID 0000.0001)     ;
(PID.TID 0000.0001) zref =  /* reference height [ m ] */
(PID.TID 0000.0001)                 1.000000000000000E+01
(PID.TID 0000.0001)     ;
(PID.TID 0000.0001) hu =  /* height of mean wind [ m ] */
(PID.TID 0000.0001)                 1.000000000000000E+01
(PID.TID 0000.0001)     ;
(PID.TID 0000.0001) ht =  /* height of mean temperature [ m ] */
(PID.TID 0000.0001)                 2.000000000000000E+00
(PID.TID 0000.0001)     ;
(PID.TID 0000.0001) hq =  /* height of mean spec.humidity [ m ] */
(PID.TID 0000.0001)                 2.000000000000000E+00
(PID.TID 0000.0001)     ;
(PID.TID 0000.0001) uMin = /* minimum wind speed [m/s] */
(PID.TID 0000.0001)                 5.000000000000000E-01
(PID.TID 0000.0001)     ;
(PID.TID 0000.0001) useStabilityFct_overIce= /* transfert Coeffs over sea-ice depend on stability */
(PID.TID 0000.0001)                   F
(PID.TID 0000.0001)     ;
(PID.TID 0000.0001) exf_iceCd = /* drag coefficient over sea-ice (fixed) [-] */
(PID.TID 0000.0001)                 1.630000000000000E-03
(PID.TID 0000.0001)     ;
(PID.TID 0000.0001) exf_iceCe = /* transfert coeff. over sea-ice, for Evap (fixed) [-] */
(PID.TID 0000.0001)                 1.630000000000000E-03
(PID.TID 0000.0001)     ;
(PID.TID 0000.0001) exf_iceCh = /* transfert coeff. over sea-ice, Sens.Heat.(fixed)[-] */
(PID.TID 0000.0001)                 1.630000000000000E-03
(PID.TID 0000.0001)     ;
(PID.TID 0000.0001) exf_albedo =  /* Sea-water albedo [-] */
(PID.TID 0000.0001)                 1.000000000000000E-01
(PID.TID 0000.0001)     ;
(PID.TID 0000.0001) useExfZenAlbedo = /* Sea-water albedo varies with zenith angle */
(PID.TID 0000.0001)                   F
(PID.TID 0000.0001)     ;
(PID.TID 0000.0001) select_ZenAlbedo = /* Sea-water albedo computation method */
(PID.TID 0000.0001)                       0
(PID.TID 0000.0001)     ;
(PID.TID 0000.0001) useExfZenIncoming = /* compute incoming solar radiation */
(PID.TID 0000.0001)                   F
(PID.TID 0000.0001)     ;
(PID.TID 0000.0001) ocean_emissivity = /* longwave ocean-surface emissivity [-] */
(PID.TID 0000.0001)                 9.700176366843034E-01
(PID.TID 0000.0001)     ;
(PID.TID 0000.0001) ice_emissivity = /* longwave seaice emissivity [-] */
(PID.TID 0000.0001)                 9.500000000000000E-01
(PID.TID 0000.0001)     ;
(PID.TID 0000.0001) snow_emissivity = /* longwave snow  emissivity [-] */
(PID.TID 0000.0001)                 9.500000000000000E-01
(PID.TID 0000.0001)     ;
(PID.TID 0000.0001) 
(PID.TID 0000.0001)  EXF main CPP flags:
(PID.TID 0000.0001) 
(PID.TID 0000.0001) // USE_EXF_INTERPOLATION:          NOT defined
(PID.TID 0000.0001) // ALLOW_ATM_TEMP:                     defined
(PID.TID 0000.0001) // ALLOW_ATM_WIND:                     defined
(PID.TID 0000.0001) // ALLOW_DOWNWARD_RADIATION:           defined
(PID.TID 0000.0001) // ALLOW_BULKFORMULAE:                 defined
(PID.TID 0000.0001) 
(PID.TID 0000.0001)    Net shortwave flux forcing starts at                0.
(PID.TID 0000.0001)    Net shortwave flux forcing period is          2635200.
(PID.TID 0000.0001)    Net shortwave flux forcing is read from file:
(PID.TID 0000.0001)    >>    <<
(PID.TID 0000.0001) 
(PID.TID 0000.0001)    Zonal wind forcing starts at                   -1317600.
(PID.TID 0000.0001)    Zonal wind forcing period is                    2635200.
(PID.TID 0000.0001)    Zonal wind forcing is read from file:
(PID.TID 0000.0001)    >>  u10m.labsea1979  <<
(PID.TID 0000.0001) 
(PID.TID 0000.0001)    Meridional wind forcing starts at              -1317600.
(PID.TID 0000.0001)    Meridional wind forcing period is               2635200.
(PID.TID 0000.0001)    Meridional wind forcing is read from file:
(PID.TID 0000.0001)    >>  v10m.labsea1979  <<
(PID.TID 0000.0001) 
(PID.TID 0000.0001)    Atmospheric temperature starts at              -1317600.
(PID.TID 0000.0001)    Atmospheric temperature period is               2635200.
(PID.TID 0000.0001)    Atmospheric temperature is read from file:
(PID.TID 0000.0001)    >>  tair.labsea1979  <<
(PID.TID 0000.0001) 
(PID.TID 0000.0001)    Atmospheric specific humidity starts at        -1317600.
(PID.TID 0000.0001)    Atmospheric specific humidity period is         2635200.
(PID.TID 0000.0001)    Atmospheric specific humidity is read from file:
(PID.TID 0000.0001)    >>  qa.labsea1979  <<
(PID.TID 0000.0001) 
(PID.TID 0000.0001)    Net longwave flux forcing starts at                 0.
(PID.TID 0000.0001)    Net longwave flux forcing period is           2635200.
(PID.TID 0000.0001)    Net longwave flux forcing is read from file:
(PID.TID 0000.0001)    >>    <<
(PID.TID 0000.0001) 
(PID.TID 0000.0001)    Precipitation data set starts at               -1317600.
(PID.TID 0000.0001)    Precipitation data period is                    2635200.
(PID.TID 0000.0001)    Precipitation data is read from file:
(PID.TID 0000.0001)    >>  prate.labsea1979  <<
(PID.TID 0000.0001) 
(PID.TID 0000.0001) // EXF_READ_EVAP:                  NOT defined
(PID.TID 0000.0001) 
(PID.TID 0000.0001) // ALLOW_RUNOFF:                       defined
(PID.TID 0000.0001)    Runoff starts at               0.
(PID.TID 0000.0001)    Runoff period is               0.
(PID.TID 0000.0001)    Runoff is read from file:
(PID.TID 0000.0001)    >>    <<
(PID.TID 0000.0001) 
(PID.TID 0000.0001)    Downward shortwave flux forcing starts at         -1317600.
(PID.TID 0000.0001)    Downward shortwave flux forcing period is          2635200.
(PID.TID 0000.0001)    Downward shortwave flux forcing is read from file:
(PID.TID 0000.0001)    >>  fsh.labsea1979  <<
(PID.TID 0000.0001) 
(PID.TID 0000.0001)    Downward longwave flux forcing starts at          -1317600.
(PID.TID 0000.0001)    Downward longwave flux forcing period is           2635200.
(PID.TID 0000.0001)    Downward longwave flux forcing is read from file:
(PID.TID 0000.0001)    >>  flo.labsea1979  <<
(PID.TID 0000.0001) 
(PID.TID 0000.0001)    Atmospheric pressure forcing starts at                0.
(PID.TID 0000.0001)    Atmospheric pressure forcing period is                0.
(PID.TID 0000.0001)    Atmospheric pressureforcing is read from file:
(PID.TID 0000.0001)    >>    <<
(PID.TID 0000.0001) 
(PID.TID 0000.0001) // =======================================================
(PID.TID 0000.0001) // External forcing (EXF) climatology configuration :
(PID.TID 0000.0001) // =======================================================
(PID.TID 0000.0001) 
(PID.TID 0000.0001) // ALLOW_CLIMSST_RELAXATION:           defined
[...]
(PID.TID 0000.0001) 
(PID.TID 0000.0001) grdchk output (p):   1     6     8     1    1    1   0.000000000E+00 -1.000000000E-04
(PID.TID 0000.0001) grdchk output (c):   1  5.9988702727892E+03  5.9988702728016E+03  5.9988702727769E+03
(PID.TID 0000.0001) grdchk output (g):   1     1.2318650988163E-04  1.2319905720724E-04  1.0184595473794E-04
(PID.TID 0000.0001) 
(PID.TID 0000.0001) grdchk output (p):   2     7     8     1    1    1   0.000000000E+00 -1.000000000E-04
(PID.TID 0000.0001) grdchk output (c):   2  5.9988702727892E+03  5.9988702728012E+03  5.9988702727773E+03
(PID.TID 0000.0001) grdchk output (g):   2     1.1919837561436E-04  1.1920641299582E-04  6.7424069363664E-05
(PID.TID 0000.0001) 
(PID.TID 0000.0001) grdchk output (p):   3     8     8     1    1    1   0.000000000E+00 -1.000000000E-04
(PID.TID 0000.0001) grdchk output (c):   3  5.9988702727892E+03  5.9988702728044E+03  5.9988702727741E+03
(PID.TID 0000.0001) grdchk output (g):   3     1.5185378288152E-04  1.5185731020774E-04  2.3227898757083E-05
(PID.TID 0000.0001) 
(PID.TID 0000.0001) grdchk output (p):   4     9     8     1    1    1   0.000000000E+00 -1.000000000E-04
(PID.TID 0000.0001) grdchk output (c):   4  5.9988702727892E+03  5.9988702728088E+03  5.9988702727697E+03
(PID.TID 0000.0001) grdchk output (g):   4     1.9512299331836E-04  1.9512974561408E-04  3.4604133243410E-05
(PID.TID 0000.0001) 
(PID.TID 0000.0001) grdchk output (p):   5    10     8     1    1    1   0.000000000E+00 -1.000000000E-04
(PID.TID 0000.0001) grdchk output (c):   5  5.9988702727892E+03  5.9988702728132E+03  5.9988702727653E+03
(PID.TID 0000.0001) grdchk output (g):   5     2.3963821149664E-04  2.3963979031091E-04  6.5882809680007E-06
(PID.TID 0000.0001) 
(PID.TID 0000.0001) // =======================================================
(PID.TID 0000.0001) // Gradient check results  >>> END <<<
(PID.TID 0000.0001) // =======================================================
(PID.TID 0000.0001) 
(PID.TID 0000.0001)   Seconds in section "ALL                    [THE_MODEL_MAIN]":
(PID.TID 0000.0001)           User time:   20.780000000000001
(PID.TID 0000.0001)         System time:  0.23000000000000001
(PID.TID 0000.0001)     Wall clock time:   21.093046903610229
(PID.TID 0000.0001)          No. starts:           1
(PID.TID 0000.0001)           No. stops:           1
(PID.TID 0000.0001)   Seconds in section "INITIALISE_FIXED       [THE_MODEL_MAIN]":
(PID.TID 0000.0001)           User time:  0.16000000000000000
(PID.TID 0000.0001)         System time:  2.00000000000000004E-002
(PID.TID 0000.0001)     Wall clock time:  0.20109486579895020
(PID.TID 0000.0001)          No. starts:           1
(PID.TID 0000.0001)           No. stops:           1
(PID.TID 0000.0001)   Seconds in section "ADTHE_MAIN_LOOP          [ADJOINT RUN]":
(PID.TID 0000.0001)           User time:   8.4900000000000002
(PID.TID 0000.0001)         System time:  0.13000000000000000
(PID.TID 0000.0001)     Wall clock time:   8.6578500270843506
(PID.TID 0000.0001)          No. starts:           1
(PID.TID 0000.0001)           No. stops:           1
(PID.TID 0000.0001)   Seconds in section "EXF_GETFORCING     [LOAD_FLDS_DRIVER]":
(PID.TID 0000.0001)           User time:  9.00000000000034106E-002
(PID.TID 0000.0001)         System time:  1.99999999999999900E-002
(PID.TID 0000.0001)     Wall clock time:  0.12116765975952148
(PID.TID 0000.0001)          No. starts:          39
(PID.TID 0000.0001)           No. stops:          39
(PID.TID 0000.0001)   Seconds in section "I/O (WRITE)        [ADJOINT LOOP]":
(PID.TID 0000.0001)           User time:  3.00000000000011369E-002
(PID.TID 0000.0001)         System time:  1.99999999999999900E-002
(PID.TID 0000.0001)     Wall clock time:  6.63635730743408203E-002
(PID.TID 0000.0001)          No. starts:         198
(PID.TID 0000.0001)           No. stops:         198
(PID.TID 0000.0001)   Seconds in section "SEAICE_MODEL    [DO_OCEANIC_PHYS]":
(PID.TID 0000.0001)           User time:  0.30000000000000426
(PID.TID 0000.0001)         System time:   0.0000000000000000
(PID.TID 0000.0001)     Wall clock time:  0.28241324424743652
(PID.TID 0000.0001)          No. starts:          39
(PID.TID 0000.0001)           No. stops:          39
(PID.TID 0000.0001)   Seconds in section "SEAICE_DYNSOLVER   [SEAICE_MODEL]":
(PID.TID 0000.0001)           User time:  5.00000000000007105E-002
(PID.TID 0000.0001)         System time:   0.0000000000000000
(PID.TID 0000.0001)     Wall clock time:  4.37710285186767578E-002
(PID.TID 0000.0001)          No. starts:          39
(PID.TID 0000.0001)           No. stops:          39
(PID.TID 0000.0001)   Seconds in section "KPP_CALC [DO_OCEANIC_PHYS]":
(PID.TID 0000.0001)           User time:   3.3900000000000112
(PID.TID 0000.0001)         System time:   0.0000000000000000
(PID.TID 0000.0001)     Wall clock time:   3.3942935466766357
(PID.TID 0000.0001)          No. starts:         156
(PID.TID 0000.0001)           No. stops:         156
(PID.TID 0000.0001)   Seconds in section "CTRL_PACK           [THE_MODEL_MAIN]":
(PID.TID 0000.0001)           User time:  1.99999999999995737E-002
(PID.TID 0000.0001)         System time:   0.0000000000000000
(PID.TID 0000.0001)     Wall clock time:  2.41591930389404297E-002
(PID.TID 0000.0001)          No. starts:           1
(PID.TID 0000.0001)           No. stops:           1
(PID.TID 0000.0001)   Seconds in section "CTRL_PACK     [THE_MODEL_MAIN]":
(PID.TID 0000.0001)           User time:  3.00000000000011369E-002
(PID.TID 0000.0001)         System time:   0.0000000000000000
(PID.TID 0000.0001)     Wall clock time:  2.32579708099365234E-002
(PID.TID 0000.0001)          No. starts:           1
(PID.TID 0000.0001)           No. stops:           1
(PID.TID 0000.0001)   Seconds in section "GRDCHK_MAIN         [THE_MODEL_MAIN]":
(PID.TID 0000.0001)           User time:   12.080000000000000
(PID.TID 0000.0001)         System time:  8.00000000000000155E-002
(PID.TID 0000.0001)     Wall clock time:   12.186602830886841
(PID.TID 0000.0001)          No. starts:           1
(PID.TID 0000.0001)           No. stops:           1
(PID.TID 0000.0001)   Seconds in section "ECCO SPIN-UP":
(PID.TID 0000.0001)           User time:  0.33999999999999631
(PID.TID 0000.0001)         System time:  1.99999999999999900E-002
(PID.TID 0000.0001)     Wall clock time:  0.37145185470581055
(PID.TID 0000.0001)          No. starts:          10
(PID.TID 0000.0001)           No. stops:          10
(PID.TID 0000.0001)   Seconds in section "INITIALISE_VARIA    [THE_MAIN_LOOP]":
(PID.TID 0000.0001)           User time:  0.33999999999999631
(PID.TID 0000.0001)         System time:  1.99999999999999900E-002
(PID.TID 0000.0001)     Wall clock time:  0.37088608741760254
(PID.TID 0000.0001)          No. starts:          10
(PID.TID 0000.0001)           No. stops:          10
(PID.TID 0000.0001)   Seconds in section "ECCO MAIN LOOP":
(PID.TID 0000.0001)           User time:   11.540000000000006
(PID.TID 0000.0001)         System time:  1.99999999999999900E-002
(PID.TID 0000.0001)     Wall clock time:   11.568285942077637
(PID.TID 0000.0001)          No. starts:          10
(PID.TID 0000.0001)           No. stops:          10
(PID.TID 0000.0001)   Seconds in section "COST_AVERAGESFIELDS   [ECCO MAIN]":
(PID.TID 0000.0001)           User time:  1.99999999999995737E-002
(PID.TID 0000.0001)         System time:   0.0000000000000000
(PID.TID 0000.0001)     Wall clock time:  2.43136882781982422E-002
(PID.TID 0000.0001)          No. starts:          30
(PID.TID 0000.0001)           No. stops:          30
(PID.TID 0000.0001)   Seconds in section "LOAD_FIELDS_DRIVER  [FORWARD_STEP]":
(PID.TID 0000.0001)           User time:  7.00000000000002842E-002
(PID.TID 0000.0001)         System time:  1.99999999999999900E-002
(PID.TID 0000.0001)     Wall clock time:  8.90312194824218750E-002
(PID.TID 0000.0001)          No. starts:          30
(PID.TID 0000.0001)           No. stops:          30
(PID.TID 0000.0001)   Seconds in section "DO_ATMOSPHERIC_PHYS [FORWARD_STEP]":
(PID.TID 0000.0001)           User time:   0.0000000000000000
(PID.TID 0000.0001)         System time:   0.0000000000000000
(PID.TID 0000.0001)     Wall clock time:  2.87055969238281250E-004
(PID.TID 0000.0001)          No. starts:          30
(PID.TID 0000.0001)           No. stops:          30
(PID.TID 0000.0001)   Seconds in section "DO_OCEANIC_PHYS     [FORWARD_STEP]":
(PID.TID 0000.0001)           User time:   4.1200000000000081
(PID.TID 0000.0001)         System time:   0.0000000000000000
(PID.TID 0000.0001)     Wall clock time:   4.1255564689636230
(PID.TID 0000.0001)          No. starts:          30
(PID.TID 0000.0001)           No. stops:          30
(PID.TID 0000.0001)   Seconds in section "DYNAMICS            [FORWARD_STEP]":
(PID.TID 0000.0001)           User time:   3.0300000000000011
(PID.TID 0000.0001)         System time:   0.0000000000000000
(PID.TID 0000.0001)     Wall clock time:   3.0268044471740723
(PID.TID 0000.0001)          No. starts:          30
(PID.TID 0000.0001)           No. stops:          30
(PID.TID 0000.0001)   Seconds in section "SOLVE_FOR_PRESSURE  [FORWARD_STEP]":
(PID.TID 0000.0001)           User time:  0.32999999999999474
(PID.TID 0000.0001)         System time:   0.0000000000000000
(PID.TID 0000.0001)     Wall clock time:  0.31472706794738770
(PID.TID 0000.0001)          No. starts:          30
(PID.TID 0000.0001)           No. stops:          30
(PID.TID 0000.0001)   Seconds in section "MOM_CORRECTION_STEP [FORWARD_STEP]":
(PID.TID 0000.0001)           User time:  3.00000000000011369E-002
(PID.TID 0000.0001)         System time:   0.0000000000000000
(PID.TID 0000.0001)     Wall clock time:  6.49137496948242188E-002
(PID.TID 0000.0001)          No. starts:          30
(PID.TID 0000.0001)           No. stops:          30
(PID.TID 0000.0001)   Seconds in section "INTEGR_CONTINUITY   [FORWARD_STEP]":
(PID.TID 0000.0001)           User time:  2.99999999999975842E-002
(PID.TID 0000.0001)         System time:   0.0000000000000000
(PID.TID 0000.0001)     Wall clock time:  4.65562343597412109E-002
(PID.TID 0000.0001)          No. starts:          30
(PID.TID 0000.0001)           No. stops:          30
(PID.TID 0000.0001)   Seconds in section "BLOCKING_EXCHANGES  [FORWARD_STEP]":
(PID.TID 0000.0001)           User time:  0.28000000000000114
(PID.TID 0000.0001)         System time:   0.0000000000000000
(PID.TID 0000.0001)     Wall clock time:  0.17670035362243652
(PID.TID 0000.0001)          No. starts:          60
(PID.TID 0000.0001)           No. stops:          60
(PID.TID 0000.0001)   Seconds in section "THERMODYNAMICS      [FORWARD_STEP]":
(PID.TID 0000.0001)           User time:   3.1900000000000048
(PID.TID 0000.0001)         System time:   0.0000000000000000
(PID.TID 0000.0001)     Wall clock time:   3.2347822189331055
(PID.TID 0000.0001)          No. starts:          30
(PID.TID 0000.0001)           No. stops:          30
(PID.TID 0000.0001)   Seconds in section "TS_CORRECTION_STEP  [FORWARD_STEP]":
(PID.TID 0000.0001)           User time:  4.99999999999971578E-002
(PID.TID 0000.0001)         System time:   0.0000000000000000
(PID.TID 0000.0001)     Wall clock time:  3.67465019226074219E-002
(PID.TID 0000.0001)          No. starts:          30
(PID.TID 0000.0001)           No. stops:          30
(PID.TID 0000.0001)   Seconds in section "DO_STATEVARS_TAVE   [FORWARD_STEP]":
(PID.TID 0000.0001)           User time:   0.0000000000000000
(PID.TID 0000.0001)         System time:   0.0000000000000000
(PID.TID 0000.0001)     Wall clock time:  3.11374664306640625E-004
(PID.TID 0000.0001)          No. starts:          30
(PID.TID 0000.0001)           No. stops:          30
(PID.TID 0000.0001)   Seconds in section "MONITOR             [FORWARD_STEP]":
(PID.TID 0000.0001)           User time:   0.0000000000000000
(PID.TID 0000.0001)         System time:   0.0000000000000000
(PID.TID 0000.0001)     Wall clock time:  2.97546386718750000E-004
(PID.TID 0000.0001)          No. starts:          30
(PID.TID 0000.0001)           No. stops:          30
(PID.TID 0000.0001)   Seconds in section "DO_THE_MODEL_IO     [FORWARD_STEP]":
(PID.TID 0000.0001)           User time:  9.99999999999801048E-003
(PID.TID 0000.0001)         System time:   0.0000000000000000
(PID.TID 0000.0001)     Wall clock time:  4.09138202667236328E-002
(PID.TID 0000.0001)          No. starts:          30
(PID.TID 0000.0001)           No. stops:          30
(PID.TID 0000.0001)   Seconds in section "DO_WRITE_PICKUP     [FORWARD_STEP]":
(PID.TID 0000.0001)           User time:   0.0000000000000000
(PID.TID 0000.0001)         System time:   0.0000000000000000
(PID.TID 0000.0001)     Wall clock time:  5.30958175659179688E-004
(PID.TID 0000.0001)          No. starts:          30
(PID.TID 0000.0001)           No. stops:          30
(PID.TID 0000.0001)   Seconds in section "ECCO SPIN-DOWN":
(PID.TID 0000.0001)           User time:  0.19000000000000128
(PID.TID 0000.0001)         System time:  2.99999999999999989E-002
(PID.TID 0000.0001)     Wall clock time:  0.23439931869506836
(PID.TID 0000.0001)          No. starts:          10
(PID.TID 0000.0001)           No. stops:          10
(PID.TID 0000.0001)   Seconds in section "COST_AVERAGESFIELDS [ECCO SPIN-DOWN]":
(PID.TID 0000.0001)           User time:  1.00000000000015632E-002
(PID.TID 0000.0001)         System time:   0.0000000000000000
(PID.TID 0000.0001)     Wall clock time:  3.63085269927978516E-002
(PID.TID 0000.0001)          No. starts:          10
(PID.TID 0000.0001)           No. stops:          10
(PID.TID 0000.0001)   Seconds in section "COST_FORCING       [ECCO SPIN-DOWN]":
(PID.TID 0000.0001)           User time:  2.99999999999975842E-002
(PID.TID 0000.0001)         System time:  1.00000000000000089E-002
(PID.TID 0000.0001)     Wall clock time:  4.50778007507324219E-002
(PID.TID 0000.0001)          No. starts:          10
(PID.TID 0000.0001)           No. stops:          10
(PID.TID 0000.0001)   Seconds in section "COST_SSH           [ECCO SPIN-DOWN]":
(PID.TID 0000.0001)           User time:   0.0000000000000000
(PID.TID 0000.0001)         System time:   0.0000000000000000
(PID.TID 0000.0001)     Wall clock time:  1.00088119506835938E-002
(PID.TID 0000.0001)          No. starts:          10
(PID.TID 0000.0001)           No. stops:          10
(PID.TID 0000.0001)   Seconds in section "COST_HYD           [ECCO SPIN-DOWN]":
(PID.TID 0000.0001)           User time:  0.13999999999999702
(PID.TID 0000.0001)         System time:  1.99999999999999900E-002
(PID.TID 0000.0001)     Wall clock time:  0.13443541526794434
(PID.TID 0000.0001)          No. starts:          10
(PID.TID 0000.0001)           No. stops:          10
(PID.TID 0000.0001)   Seconds in section "SEAICE_COST_DRIVER [ECCO SPIN-DOWN]":
(PID.TID 0000.0001)           User time:  1.00000000000015632E-002
(PID.TID 0000.0001)         System time:   0.0000000000000000
(PID.TID 0000.0001)     Wall clock time:  7.61747360229492188E-004
(PID.TID 0000.0001)          No. starts:          10
(PID.TID 0000.0001)           No. stops:          10
(PID.TID 0000.0001)   Seconds in section "COST_INTERNAL_PARAMS  [ECCO SPIN-DOWN]":
(PID.TID 0000.0001)           User time:   0.0000000000000000
(PID.TID 0000.0001)         System time:   0.0000000000000000
(PID.TID 0000.0001)     Wall clock time:  1.00135803222656250E-004
(PID.TID 0000.0001)          No. starts:          10
(PID.TID 0000.0001)           No. stops:          10
(PID.TID 0000.0001)   Seconds in section "COST_GENCOST_ALL    [ECCO SPIN-DOWN]":
(PID.TID 0000.0001)           User time:   0.0000000000000000
(PID.TID 0000.0001)         System time:   0.0000000000000000
(PID.TID 0000.0001)     Wall clock time:  9.72747802734375000E-005
(PID.TID 0000.0001)          No. starts:          10
(PID.TID 0000.0001)           No. stops:          10
(PID.TID 0000.0001)   Seconds in section "COST_USERCOST_ALL    [ECCO SPIN-DOWN]":
(PID.TID 0000.0001)           User time:   0.0000000000000000
(PID.TID 0000.0001)         System time:   0.0000000000000000
(PID.TID 0000.0001)     Wall clock time:  9.67979431152343750E-005
(PID.TID 0000.0001)          No. starts:          10
(PID.TID 0000.0001)           No. stops:          10
(PID.TID 0000.0001)   Seconds in section "COST_FINAL         [ECCO SPIN-DOWN]":
(PID.TID 0000.0001)           User time:   0.0000000000000000
(PID.TID 0000.0001)         System time:   0.0000000000000000
(PID.TID 0000.0001)     Wall clock time:  6.50215148925781250E-003
(PID.TID 0000.0001)          No. starts:          10
(PID.TID 0000.0001)           No. stops:          10
(PID.TID 0000.0001) // ======================================================
(PID.TID 0000.0001) // Tile <-> Tile communication statistics
(PID.TID 0000.0001) // ======================================================
(PID.TID 0000.0001) // o Tile number: 000001
(PID.TID 0000.0001) //         No. X exchanges =              0
(PID.TID 0000.0001) //            Max. X spins =              0
(PID.TID 0000.0001) //            Min. X spins =     1000000000
(PID.TID 0000.0001) //          Total. X spins =              0
(PID.TID 0000.0001) //            Avg. X spins =       0.00E+00
(PID.TID 0000.0001) //         No. Y exchanges =              0
(PID.TID 0000.0001) //            Max. Y spins =              0
(PID.TID 0000.0001) //            Min. Y spins =     1000000000
(PID.TID 0000.0001) //          Total. Y spins =              0
(PID.TID 0000.0001) //            Avg. Y spins =       0.00E+00
(PID.TID 0000.0001) // o Tile number: 000002
(PID.TID 0000.0001) //         No. X exchanges =              0
(PID.TID 0000.0001) //            Max. X spins =              0
(PID.TID 0000.0001) //            Min. X spins =     1000000000
(PID.TID 0000.0001) //          Total. X spins =              0
(PID.TID 0000.0001) //            Avg. X spins =       0.00E+00
(PID.TID 0000.0001) //         No. Y exchanges =              0
(PID.TID 0000.0001) //            Max. Y spins =              0
(PID.TID 0000.0001) //            Min. Y spins =     1000000000
(PID.TID 0000.0001) //          Total. Y spins =              0
(PID.TID 0000.0001) //            Avg. Y spins =       0.00E+00
(PID.TID 0000.0001) // o Tile number: 000003
(PID.TID 0000.0001) //         No. X exchanges =              0
(PID.TID 0000.0001) //            Max. X spins =              0
(PID.TID 0000.0001) //            Min. X spins =     1000000000
(PID.TID 0000.0001) //          Total. X spins =              0
(PID.TID 0000.0001) //            Avg. X spins =       0.00E+00
(PID.TID 0000.0001) //         No. Y exchanges =              0
(PID.TID 0000.0001) //            Max. Y spins =              0
(PID.TID 0000.0001) //            Min. Y spins =     1000000000
(PID.TID 0000.0001) //          Total. Y spins =              0
(PID.TID 0000.0001) //            Avg. Y spins =       0.00E+00
(PID.TID 0000.0001) // o Tile number: 000004
(PID.TID 0000.0001) //         No. X exchanges =              0
(PID.TID 0000.0001) //            Max. X spins =              0
(PID.TID 0000.0001) //            Min. X spins =     1000000000
(PID.TID 0000.0001) //          Total. X spins =              0
(PID.TID 0000.0001) //            Avg. X spins =       0.00E+00
(PID.TID 0000.0001) //         No. Y exchanges =              0
(PID.TID 0000.0001) //            Max. Y spins =              0
(PID.TID 0000.0001) //            Min. Y spins =     1000000000
(PID.TID 0000.0001) //          Total. Y spins =              0
(PID.TID 0000.0001) //            Avg. Y spins =       0.00E+00
(PID.TID 0000.0001) // o Thread number: 000001
(PID.TID 0000.0001) //            No. barriers =          22420
(PID.TID 0000.0001) //      Max. barrier spins =              1
(PID.TID 0000.0001) //      Min. barrier spins =              1
(PID.TID 0000.0001) //     Total barrier spins =          22420
(PID.TID 0000.0001) //      Avg. barrier spins =       1.00E+00
PROGRAM MAIN: Execution ended Normally
