(PID.TID 0000.0001) 
(PID.TID 0000.0001) // ======================================================
(PID.TID 0000.0001) //                      MITgcm UV
(PID.TID 0000.0001) //                      =========
(PID.TID 0000.0001) // ======================================================
(PID.TID 0000.0001) // execution environment starting up...
(PID.TID 0000.0001) 
(PID.TID 0000.0001) // MITgcmUV version:  checkpoint57c_pre
(PID.TID 0000.0001) // Build user:        jmc
(PID.TID 0000.0001) // Build host:        faulks
(PID.TID 0000.0001) // Build date:        Thu Jan 27 09:41:04 EST 2005
(PID.TID 0000.0001) 
(PID.TID 0000.0001) // =======================================================
(PID.TID 0000.0001) // Execution Environment parameter file "eedata"
(PID.TID 0000.0001) // =======================================================
(PID.TID 0000.0001) ># Example "eedata" file
(PID.TID 0000.0001) ># Lines beginning "#" are comments
(PID.TID 0000.0001) ># nTx - No. threads per process in X
(PID.TID 0000.0001) ># nTy - No. threads per process in Y
(PID.TID 0000.0001) > &EEPARMS
(PID.TID 0000.0001) > nTx=1,nTy=1
(PID.TID 0000.0001) > &
(PID.TID 0000.0001) ># Note: Some systems use & as the
(PID.TID 0000.0001) ># namelist terminator. Other systems
(PID.TID 0000.0001) ># use a / character (as shown here).
(PID.TID 0000.0001) 
(PID.TID 0000.0001) // =======================================================
(PID.TID 0000.0001) // Computational Grid Specification ( see files "SIZE.h" )
(PID.TID 0000.0001) //                                  ( and "eedata"       )
(PID.TID 0000.0001) // =======================================================
(PID.TID 0000.0001)      nPx =    1 ; /* No. processes in X */
(PID.TID 0000.0001)      nPy =    1 ; /* No. processes in Y */
(PID.TID 0000.0001)      nSx =    2 ; /* No. tiles in X per process */
(PID.TID 0000.0001)      nSy =    2 ; /* No. tiles in Y per process */
(PID.TID 0000.0001)      sNx =   45 ; /* Tile size in X */
(PID.TID 0000.0001)      sNy =   20 ; /* Tile size in Y */
(PID.TID 0000.0001)      OLx =    2 ; /* Tile overlap distance in X */
(PID.TID 0000.0001)      OLy =    2 ; /* Tile overlap distance in Y */
(PID.TID 0000.0001)      nTx =    1 ; /* No. threads in X per process */
(PID.TID 0000.0001)      nTy =    1 ; /* No. threads in Y per process */
(PID.TID 0000.0001)       Nr =   20 ; /* No. levels in the vertical   */
(PID.TID 0000.0001)       nX =   90 ; /* Total domain size in X ( = nPx*nSx*sNx ) */
(PID.TID 0000.0001)       nY =   40 ; /* Total domain size in Y ( = nPy*nSy*sNy ) */
(PID.TID 0000.0001)   nTiles =    4 ; /* Total no. tiles per process ( = nSx*nSy ) */
(PID.TID 0000.0001)   nProcs =    1 ; /* Total no. processes ( = nPx*nPy ) */
(PID.TID 0000.0001) nThreads =    1 ; /* Total no. threads per process ( = nTx*nTy ) */
(PID.TID 0000.0001) usingMPI =    F ; /* Flag used to control whether MPI is in use */
(PID.TID 0000.0001)                   /*  note: To execute a program with MPI calls */
(PID.TID 0000.0001)                   /*  it must be launched appropriately e.g     */
(PID.TID 0000.0001)                   /*  "mpirun -np 64 ......"                    */
(PID.TID 0000.0001) useCoupler=   F ; /* Flag used to control communications with */
(PID.TID 0000.0001)                   /*  other model components, through a coupler */
(PID.TID 0000.0001) 
(PID.TID 0000.0001) // ======================================================
(PID.TID 0000.0001) // Mapping of tiles to threads
(PID.TID 0000.0001) // ======================================================
(PID.TID 0000.0001) // -o- Thread   1, tiles (   1:   2,   1:   2)
(PID.TID 0000.0001) 
(PID.TID 0000.0001) // ======================================================
(PID.TID 0000.0001) // Tile <-> Tile connectvity table
(PID.TID 0000.0001) // ======================================================
(PID.TID 0000.0001) // Tile number: 000001 (process no. = 000001)
(PID.TID 0000.0001) //        WEST: Tile = 000002, Process = 000001, Comm = put
(PID.TID 0000.0001) //                bi = 000002, bj = 000001
(PID.TID 0000.0001) //        EAST: Tile = 000002, Process = 000001, Comm = put
(PID.TID 0000.0001) //                bi = 000002, bj = 000001
(PID.TID 0000.0001) //       SOUTH: Tile = 000003, Process = 000001, Comm = put
(PID.TID 0000.0001) //                bi = 000001, bj = 000002
(PID.TID 0000.0001) //       NORTH: Tile = 000003, Process = 000001, Comm = put
(PID.TID 0000.0001) //                bi = 000001, bj = 000002
(PID.TID 0000.0001) // Tile number: 000002 (process no. = 000001)
(PID.TID 0000.0001) //        WEST: Tile = 000001, Process = 000001, Comm = put
(PID.TID 0000.0001) //                bi = 000001, bj = 000001
(PID.TID 0000.0001) //        EAST: Tile = 000001, Process = 000001, Comm = put
(PID.TID 0000.0001) //                bi = 000001, bj = 000001
(PID.TID 0000.0001) //       SOUTH: Tile = 000004, Process = 000001, Comm = put
(PID.TID 0000.0001) //                bi = 000002, bj = 000002
(PID.TID 0000.0001) //       NORTH: Tile = 000004, Process = 000001, Comm = put
(PID.TID 0000.0001) //                bi = 000002, bj = 000002
(PID.TID 0000.0001) // Tile number: 000003 (process no. = 000001)
(PID.TID 0000.0001) //        WEST: Tile = 000004, Process = 000001, Comm = put
(PID.TID 0000.0001) //                bi = 000002, bj = 000002
(PID.TID 0000.0001) //        EAST: Tile = 000004, Process = 000001, Comm = put
(PID.TID 0000.0001) //                bi = 000002, bj = 000002
(PID.TID 0000.0001) //       SOUTH: Tile = 000001, Process = 000001, Comm = put
(PID.TID 0000.0001) //                bi = 000001, bj = 000001
(PID.TID 0000.0001) //       NORTH: Tile = 000001, Process = 000001, Comm = put
(PID.TID 0000.0001) //                bi = 000001, bj = 000001
(PID.TID 0000.0001) // Tile number: 000004 (process no. = 000001)
(PID.TID 0000.0001) //        WEST: Tile = 000003, Process = 000001, Comm = put
(PID.TID 0000.0001) //                bi = 000001, bj = 000002
(PID.TID 0000.0001) //        EAST: Tile = 000003, Process = 000001, Comm = put
(PID.TID 0000.0001) //                bi = 000001, bj = 000002
(PID.TID 0000.0001) //       SOUTH: Tile = 000002, Process = 000001, Comm = put
(PID.TID 0000.0001) //                bi = 000002, bj = 000001
(PID.TID 0000.0001) //       NORTH: Tile = 000002, Process = 000001, Comm = put
(PID.TID 0000.0001) //                bi = 000002, bj = 000001
(PID.TID 0000.0001) 
(PID.TID 0000.0001) // =======================================================
(PID.TID 0000.0001) // Model parameter file "data"
(PID.TID 0000.0001) // =======================================================
(PID.TID 0000.0001) ># ====================
(PID.TID 0000.0001) ># | Model parameters |
(PID.TID 0000.0001) ># ====================
(PID.TID 0000.0001) >#
(PID.TID 0000.0001) ># Continuous equation parameters
(PID.TID 0000.0001) > &PARM01
(PID.TID 0000.0001) > tRef= 16.0 , 15.2 , 14.5 , 13.9 , 13.3 ,
(PID.TID 0000.0001) >       12.4 , 11.3 ,  9.9 ,  8.4 ,  6.7 ,
(PID.TID 0000.0001) >        5.2 ,  3.8 ,  2.9 ,  2.3 ,  1.8 ,
(PID.TID 0000.0001) >        1.5 ,  1.1 ,  0.8 ,  0.66,  0.63,
(PID.TID 0000.0001) > sRef= 34.65, 34.75, 34.82, 34.87, 34.90,
(PID.TID 0000.0001) >       34.90, 34.86, 34.78, 34.69, 34.60,
(PID.TID 0000.0001) >       34.58, 34.62, 34.68, 34.72, 34.73,
(PID.TID 0000.0001) >       34.74, 34.73, 34.73, 34.72, 34.72,
(PID.TID 0000.0001) > viscAz=1.E-3,
(PID.TID 0000.0001) > viscAh=5.E5,
(PID.TID 0000.0001) > no_slip_sides=.FALSE.,
(PID.TID 0000.0001) > no_slip_bottom=.TRUE.,
(PID.TID 0000.0001) > diffKhT=1.E3,
(PID.TID 0000.0001) > diffKzT=3.E-5,
(PID.TID 0000.0001) > diffKhS=1.E3,
(PID.TID 0000.0001) > diffKzS=3.E-5,
(PID.TID 0000.0001) > tAlpha=2.E-4,
(PID.TID 0000.0001) > sBeta =7.4E-4,
(PID.TID 0000.0001) > gravity=9.81,
(PID.TID 0000.0001) > rigidLid=.FALSE.,
(PID.TID 0000.0001) > implicitFreeSurface=.TRUE.,
(PID.TID 0000.0001) > useCDscheme=.TRUE.,
(PID.TID 0000.0001) > useNHMTerms=.TRUE.,
(PID.TID 0000.0001) > eosType='LINEAR',
(PID.TID 0000.0001) > readBinaryPrec=32,
(PID.TID 0000.0001) > &
(PID.TID 0000.0001) >
(PID.TID 0000.0001) ># Elliptic solver parameters
(PID.TID 0000.0001) > &PARM02
(PID.TID 0000.0001) > cg2dMaxIters=1000,
(PID.TID 0000.0001) > cg2dTargetResidual=1.E-13,
(PID.TID 0000.0001) > &
(PID.TID 0000.0001) >
(PID.TID 0000.0001) ># Time stepping parameters
(PID.TID 0000.0001) > &PARM03
(PID.TID 0000.0001) > startTime=0,
(PID.TID 0000.0001) >#endTime=3110400000,
(PID.TID 0000.0001) > endTime=2808000.,
(PID.TID 0000.0001) > deltaTmom=2400.0,
(PID.TID 0000.0001) > tauCD=321428.,
(PID.TID 0000.0001) > deltaTtracer=108000.0,
(PID.TID 0000.0001) > deltaTClock =108000.0,
(PID.TID 0000.0001) > cAdjFreq=-1.,
(PID.TID 0000.0001) > abEps=0.1,
(PID.TID 0000.0001) > pChkptFreq=0.0,
(PID.TID 0000.0001) > chkptFreq=0.0,
(PID.TID 0000.0001) > dumpFreq=2592000.0,
(PID.TID 0000.0001) > tauThetaClimRelax=2592000.0,
(PID.TID 0000.0001) > tauSaltClimRelax=2592000.0,
(PID.TID 0000.0001) > monitorFreq=1.,
(PID.TID 0000.0001) > &
(PID.TID 0000.0001) >
(PID.TID 0000.0001) ># Gridding parameters
(PID.TID 0000.0001) > &PARM04
(PID.TID 0000.0001) > usingCartesianGrid=.FALSE.,
(PID.TID 0000.0001) > usingSphericalPolarGrid=.TRUE.,
(PID.TID 0000.0001) > delZ= 5.000000e+01, 5.000000e+01, 5.500000e+01, 6.000000e+01,
(PID.TID 0000.0001) >       6.500000e+01, 7.000000e+01, 8.000000e+01, 9.500000e+01,
(PID.TID 0000.0001) >       1.200000e+02, 1.550000e+02, 2.000000e+02, 2.600000e+02,
(PID.TID 0000.0001) >       3.200000e+02, 4.000000e+02, 4.800000e+02, 5.700000e+02,
(PID.TID 0000.0001) >       6.550000e+02, 7.250000e+02, 7.750000e+02, 8.150000e+02,
(PID.TID 0000.0001) > phiMin=-80.,
(PID.TID 0000.0001) > delY=40*4,
(PID.TID 0000.0001) > delX=90*4,
(PID.TID 0000.0001) > &
(PID.TID 0000.0001) >
(PID.TID 0000.0001) ># Input datasets
(PID.TID 0000.0001) > &PARM05
(PID.TID 0000.0001) > hydrogThetaFile='theta.bin',
(PID.TID 0000.0001) > hydrogSaltFile='salt.bin',
(PID.TID 0000.0001) > bathyFile='topog.bin',
(PID.TID 0000.0001) > zonalWindFile='windx.bin',
(PID.TID 0000.0001) > meridWindFile='windy.bin',
(PID.TID 0000.0001) > thetaClimFile='SST.bin'
(PID.TID 0000.0001) > saltClimFile='SSS.bin'
(PID.TID 0000.0001) > &
(PID.TID 0000.0001) 
(PID.TID 0000.0001) S/R INI_PARMS ; starts to read PARM01
(PID.TID 0000.0001) S/R INI_PARMS ; read PARM01 : OK
(PID.TID 0000.0001) S/R INI_PARMS ; starts to read PARM02
(PID.TID 0000.0001) S/R INI_PARMS ; read PARM02 : OK
(PID.TID 0000.0001) S/R INI_PARMS ; starts to read PARM03
(PID.TID 0000.0001) S/R INI_PARMS ; read PARM03 : OK
(PID.TID 0000.0001) S/R INI_PARMS ; starts to read PARM04
(PID.TID 0000.0001) S/R INI_PARMS ; read PARM04 : OK
(PID.TID 0000.0001) S/R INI_PARMS ; starts to read PARM05
(PID.TID 0000.0001) S/R INI_PARMS ; read PARM05 : OK
(PID.TID 0000.0001)  PACKAGES_BOOT: opening data.pkg
(PID.TID 0000.0001)  OPEN_COPY_DATA_FILE: opening file data.pkg
(PID.TID 0000.0001) // =======================================================
(PID.TID 0000.0001) // Parameter file "data.pkg"
(PID.TID 0000.0001) // =======================================================
(PID.TID 0000.0001) ># Packages
(PID.TID 0000.0001) > &PACKAGES
(PID.TID 0000.0001) > &
(PID.TID 0000.0001) 
(PID.TID 0000.0001)  PACKAGES_BOOT: finished reading data.pkg
(PID.TID 0000.0001) %MON XC_max                       =   3.5800000000000E+02
(PID.TID 0000.0001) %MON XC_min                       =   2.0000000000000E+00
(PID.TID 0000.0001) %MON XC_mean                      =   1.8000000000000E+02
(PID.TID 0000.0001) %MON XC_sd                        =   1.0391663325314E+02
(PID.TID 0000.0001) %MON XG_max                       =   3.5600000000000E+02
(PID.TID 0000.0001) %MON XG_min                       =   4.0000000000000E+00
(PID.TID 0000.0001) %MON XG_mean                      =   1.8000000000000E+02
(PID.TID 0000.0001) %MON XG_sd                        =   1.0276186062932E+02
(PID.TID 0000.0001) %MON DXC_max                      =   4.4443898815675E+05
(PID.TID 0000.0001) %MON DXC_min                      =   9.2460385861875E+04
(PID.TID 0000.0001) %MON DXC_mean                     =   3.1372497618153E+05
(PID.TID 0000.0001) %MON DXC_sd                       =   1.1216447457560E+05
(PID.TID 0000.0001) %MON DXF_max                      =   4.4443898815675E+05
(PID.TID 0000.0001) %MON DXF_min                      =   9.2460385861875E+04
(PID.TID 0000.0001) %MON DXF_mean                     =   3.1372497618153E+05
(PID.TID 0000.0001) %MON DXF_sd                       =   1.1216447457560E+05
(PID.TID 0000.0001) %MON DXG_max                      =   4.4470989340816E+05
(PID.TID 0000.0001) %MON DXG_min                      =   7.7223062580781E+04
(PID.TID 0000.0001) %MON DXG_mean                     =   3.1353386340261E+05
(PID.TID 0000.0001) %MON DXG_sd                       =   1.1256651772502E+05
(PID.TID 0000.0001) %MON DXV_max                      =   4.4470989340816E+05
(PID.TID 0000.0001) %MON DXV_min                      =   7.7223062580781E+04
(PID.TID 0000.0001) %MON DXV_mean                     =   3.1353386340261E+05
(PID.TID 0000.0001) %MON DXV_sd                       =   1.1256651772502E+05
(PID.TID 0000.0001) %MON YC_max                       =   7.8000000000000E+01
(PID.TID 0000.0001) %MON YC_min                       =  -7.8000000000000E+01
(PID.TID 0000.0001) %MON YC_mean                      =   0.0000000000000E+00
(PID.TID 0000.0001) %MON YC_sd                        =   4.6173585522461E+01
(PID.TID 0000.0001) %MON YG_max                       =   7.6000000000000E+01
(PID.TID 0000.0001) %MON YG_min                       =  -8.0000000000000E+01
(PID.TID 0000.0001) %MON YG_mean                      =  -2.0512820512821E+00
(PID.TID 0000.0001) %MON YG_sd                        =   4.6760682979564E+01
(PID.TID 0000.0001) %MON DYC_max                      =   4.4470989340816E+05
(PID.TID 0000.0001) %MON DYC_min                      =   4.4470989340816E+05
(PID.TID 0000.0001) %MON DYC_mean                     =   4.4470989340816E+05
(PID.TID 0000.0001) %MON DYC_sd                       =   5.2968971431255E-09
(PID.TID 0000.0001) %MON DYF_max                      =   4.4470989340816E+05
(PID.TID 0000.0001) %MON DYF_min                      =   4.4470989340816E+05
(PID.TID 0000.0001) %MON DYF_mean                     =   4.4470989340816E+05
(PID.TID 0000.0001) %MON DYF_sd                       =   5.2968971431255E-09
(PID.TID 0000.0001) %MON DYG_max                      =   4.4470989340816E+05
(PID.TID 0000.0001) %MON DYG_min                      =   4.4470989340816E+05
(PID.TID 0000.0001) %MON DYG_mean                     =   4.4470989340816E+05
(PID.TID 0000.0001) %MON DYG_sd                       =   5.2968971431255E-09
(PID.TID 0000.0001) %MON DYU_max                      =   4.4470989340816E+05
(PID.TID 0000.0001) %MON DYU_min                      =   4.4470989340816E+05
(PID.TID 0000.0001) %MON DYU_mean                     =   4.4470989340816E+05
(PID.TID 0000.0001) %MON DYU_sd                       =   5.2968971431255E-09
(PID.TID 0000.0001) %MON RA_max                       =   1.9760627980089E+11
(PID.TID 0000.0001) %MON RA_min                       =   4.1109698667290E+10
(PID.TID 0000.0001) %MON RA_mean                      =   1.3948826965196E+11
(PID.TID 0000.0001) %MON RA_sd                        =   4.9870522472902E+10
(PID.TID 0000.0001) %MON RAW_max                      =   1.9760627980089E+11
(PID.TID 0000.0001) %MON RAW_min                      =   4.1109698667290E+10
(PID.TID 0000.0001) %MON RAW_mean                     =   1.3948826965196E+11
(PID.TID 0000.0001) %MON RAW_sd                       =   4.9870522472902E+10
(PID.TID 0000.0001) %MON RAS_max                      =   1.9772672958215E+11
(PID.TID 0000.0001) %MON RAS_min                      =   3.4334886267983E+10
(PID.TID 0000.0001) %MON RAS_mean                     =   1.3940329716694E+11
(PID.TID 0000.0001) %MON RAS_sd                       =   5.0049278732353E+10
(PID.TID 0000.0001) %MON RAZ_max                      =   1.9772672958215E+11
(PID.TID 0000.0001) %MON RAZ_min                      =   3.4334886267983E+10
(PID.TID 0000.0001) %MON RAZ_mean                     =   1.3940329716694E+11
(PID.TID 0000.0001) %MON RAZ_sd                       =   5.0049278732353E+10
(PID.TID 0000.0001)  MDSREADFIELD: opening global file: topog.bin
(PID.TID 0000.0001) // =======================================================
(PID.TID 0000.0001) // Field Model R_low (ini_masks_etc) at iteration          1
(PID.TID 0000.0001) // CMIN =         -6.000000000000000E+03
(PID.TID 0000.0001) // CMAX =         -5.000000000000000E+01
(PID.TID 0000.0001) // CINT =          2.203703703703704E+02
(PID.TID 0000.0001) // SYMBOLS (CMIN->CMAX): -abcdefghijklmnopqrstuvwxyz+
(PID.TID 0000.0001) //                  0.0: .
(PID.TID 0000.0001) // RANGE I (Lo:Hi:Step):(  -1:  92:   1)
(PID.TID 0000.0001) // RANGE J (Lo:Hi:Step):(  42:  -1:  -1)
(PID.TID 0000.0001) // RANGE K (Lo:Hi:Step):(   1:   1:   1)
(PID.TID 0000.0001) // =======================================================
(PID.TID 0000.0001) K =   1
(PID.TID 0000.0001) //                I=8       I=18      I=28      I=38      I=44      I=54      I=64      I=74      I=84
(PID.TID 0000.0001) // |--J--|*01234567|901234567|901234567|901234567|901234567|567890123|567890123|567890123|567890123|56789012
(PID.TID 0000.0001) //     42 .............................................yyxwyyxwrpmm...........................xwtt..........
(PID.TID 0000.0001) //     41 ..................................................................................................
(PID.TID 0000.0001) //     40 ..................................................................................................
(PID.TID 0000.0001) //     39 pmmmprxz.......................................................................rtw.........wrppmmm
(PID.TID 0000.0001) //     38 mmmmmr..........................................................................vw........wwtrmmmm
(PID.TID 0000.0001) //     37 mmpw............................................................................xrr...rprv..tvmmpw
(PID.TID 0000.0001) //     36 xxz..........................................mmprmmprz..........................vpmm.mmprrpprtxxz.
(PID.TID 0000.0001) //     35 ..++.................................ywxz.kgmmmmmmmmmmvr.ggkkmr..................pkkkkmpmmprpr..++
(PID.TID 0000.0001) //     34 ......................................wwwd-gd----------d-ggkkkmp..................xmkkkkkkkgmw....
(PID.TID 0000.0001) //     33 g.....................................mm---------------ddddggkkpr...............zz.tmkgkkkggggg...
(PID.TID 0000.0001) //     32 ......................................k---d------------dddddgkkkp...............pkgkgdgkmmkgdg....
(PID.TID 0000.0001) //     31 ......................................-----d----------dddddd-dggg.............kgdd-dd-gkpkgdd.....
(PID.TID 0000.0001) //     30 .....................................----d--d-gdd-gddd----dd-dddg............gdddd---dkmkddddd....
(PID.TID 0000.0001) //     29 .................................zvgk----d---ddd-ddd-------ddddgkkm.........pd-dd---gkkgk-dgkk....
(PID.TID 0000.0001) //     28 ................................yrggd----------dd--dddd----ddgggkkk......pm.gddd----ggd--ddkm.....
(PID.TID 0000.0001) //     27 .................................---dd---------dd--dddgggdddddggkkkkm...kkmrrd-----dkg---dgk......
(PID.TID 0000.0001) //     26 .................kmm....t.....mkg---dg----ddddgdddgdddddgdddddddgkkkmk..m.kggk-----gkg--ddgm......
(PID.TID 0000.0001) //     25 ...............kkkkk..mmpp...rkk.d--dg----dddddd-ddd-dd-dd---dddggkkkkk....kkkgdd-dgkd---dkk......
(PID.TID 0000.0001) //     24 ..............pkkkkkt.kkmp...kkk.---------dggd---d---dd-dd--dddgggkkkkmkgk.mkk.dpgddgg---dgk......
(PID.TID 0000.0001) //     23 ...............dgkggmpkkkk.++ppkk----kggddddkd---d----dgdddddgggggkkkkmkkkm......mkggkkdddggg.....
(PID.TID 0000.0001) //     22 gggk..........ddgkkkmkkkkk..++..d--dggdgkkggkgdd-gdd--ddkgddggkkkkkkkkmmkkmm.......mkkgkkkgddggggk
(PID.TID 0000.0001) //     21 ddgk.........gddggkkggggggg.....ppkkgkgdkpkkkgd--gd----ddgggkkkkggkkkkkmmmmm........kkkkgkgdddddgk
(PID.TID 0000.0001) //     20 dgggk.......kddgkgkggddggdd.......d...rrmrkkkdd--dd----dddggggggggkkkkkkkkk............kdd-dggdggg
(PID.TID 0000.0001) //     19 gdddg.......kggkkkkmddddddd--.kkkg-t...-dkkkddgd-dgd--ggddddkkgggkkkkkkkkkkd...........gd-dgkkgddd
(PID.TID 0000.0001) //     22 gggk..........ddgkkkmkkkkk..++..d--dggdgkkggkgdd-gdd--ddkgddggkkkkkkkkmmkkmm.......mkkgkkkgddggggk
(PID.TID 0000.0001) //     21 ddgk.........gddggkkggggggg.....ppkkgkgdkpkkkgd--gd----ddgggkkkkggkkkkkmmmmm........kkkkgkgdddddgk
(PID.TID 0000.0001) //     20 dgggk.......kddgkgkggddggdd.......d...rrmrkkkdd--dd----dddggggggggkkkkkkkkk............kdd-dggdggg
(PID.TID 0000.0001) //     19 gdddg.......kggkkkkmddddddd--.kkkg-t...-dkkkddgd-dgd--ggddddkkgggkkkkkkkkkkd...........gd-dgkkgddd
(PID.TID 0000.0001) //     18 ddddg.......mkkkkkkkdddgd-------mv....mkkmd-kkkkgkkkgddkddgggkkkkkkkkkkkkkggg..........gd-dgkkdddd
(PID.TID 0000.0001) //     17 gd-dg.......m..gkkkggddg--------t......ggkggkmmp-mmp--ddgggkkkkkkkkmkkkkkgggk..........gd--gkkgd-d
(PID.TID 0000.0001) //     16 gdddg......mp.ddkkmkggdg------k........wmmmgdkkp-kkp-ddggggggkkkkkkmkkkkkgkkgd........kgd--gkkgddd
(PID.TID 0000.0001) //     15 -ddkg......kk.dddgkkkggggd---g..........ggpmggkr-gkr--ddgggggkkkkkmmkkkkkkkkgk.......pkgdddgkg-ddk
(PID.TID 0000.0001) //     14 gdddgk....rggkdd-ggkkkkgggddd-...........gpkkgk--gk--ddddgggkkkkkkmmmkkkkkkkkd......mkkgd-gkkkgddd
(PID.TID 0000.0001) //     13 gkdddk...kmdgkggkggggkkkkkgddd..........-gtkkkk--kk-----dgddggkkkkkmmkkkkkkkkg.....mkkkggggkmkgkdd
(PID.TID 0000.0001) //     12 kgdddgkgkkdddmkggdggkmkkkkkdddd.d---....dddprtm--tm-----dd-ddggggkkkmkkkkkkkkg....pddddgkkkmkkkgdd
(PID.TID 0000.0001) //     11 kgddggddkgddgmkgddgkkmkkkkkggggd----ddxkgddkw.mgd.mgdgddgddddddggkkkkkkgkkkkk....pdddddddkkmmkkgdd
(PID.TID 0000.0001) //     10 kkgggddddddkmmmgddkkkmmmmkkkkkggggggggkkdddk.tpmdtpmddddgddddddggkkkkkkgggkkk...+gd-ddddggkkmkkkgg
(PID.TID 0000.0001) //      9 kkkkgdddddggkkkkgkmpmmkkkkmkmkkkkkkkgkkgddgkwtpddtpddddddddggggggkkmkkkkgggkk...xg------ddgkkmkkkk
(PID.TID 0000.0001) //      8 pmkkkkkkdddgkkgggggkrpkgkkkkkkkkkkkkkkkkgggkwgd--gd---ddddggkkkkkkmkkggddgggk..zxrpmmkggggkkkkpmkk
(PID.TID 0000.0001) //      7 kkgddddgd----ddddgggkmgddkkkkkkggggkkkkkkkgddddddddddddgggkkkkkkmmkkdddddddggkkkkkgkkkkg---gkkkkgd
(PID.TID 0000.0001) //      6 dddddddd--d--dddddgggkpkggkkkkkgggggkkkkkmdddddggddgggggkmmkkggddddddddddddddggkkkkkkkkkk-dgdddddd
(PID.TID 0000.0001) //      5 dddddddddddddgddgkgkkmmmmkk.kkkkkkkkkkkkmmpkkkkkkkkkkmmmkkkkkggddddddgdddggggkkk.xpkkgggggddd-dddd
(PID.TID 0000.0001) //      4 gkkkkkgggk.k..............................rpmmmkkmmkkkkkkkkkkkkgggggggggkgkkkm...xmkkkkggggggggkkk
(PID.TID 0000.0001) //      3 .............................................ppmkppmkkkkkkkkkkkkmmpmmmm..........wpmkkkkkkkk......
(PID.TID 0000.0001) //      2 .............................................yyxwyyxwrpmm...........................xwtt..........
(PID.TID 0000.0001) //      1 ..................................................................................................
(PID.TID 0000.0001) //      0 ..................................................................................................
(PID.TID 0000.0001) //     -1 pmmmprxz.......................................................................rtw.........wrppmmm
(PID.TID 0000.0001) // =======================================================
(PID.TID 0000.0001) // END OF FIELD                                          =
(PID.TID 0000.0001) // =======================================================
(PID.TID 0000.0001) 
(PID.TID 0000.0001) // =======================================================
(PID.TID 0000.0001) // Field Model Ro_surf (ini_masks_etc) at iteration          1
(PID.TID 0000.0001) // CMIN =          1.000000000000000E+32
(PID.TID 0000.0001) // CMAX =         -1.000000000000000E+32
(PID.TID 0000.0001) // CINT =          0.000000000000000E+00
(PID.TID 0000.0001) // SYMBOLS (CMIN->CMAX): -abcdefghijklmnopqrstuvwxyz+
(PID.TID 0000.0001) //                  0.0: .
(PID.TID 0000.0001) // RANGE I (Lo:Hi:Step):(  -1:  92:   1)
(PID.TID 0000.0001) // RANGE J (Lo:Hi:Step):(  42:  -1:  -1)
(PID.TID 0000.0001) // RANGE K (Lo:Hi:Step):(   1:   1:   1)
(PID.TID 0000.0001) // =======================================================
(PID.TID 0000.0001) // =======================================================
(PID.TID 0000.0001) // END OF FIELD                                          =
(PID.TID 0000.0001) // =======================================================
(PID.TID 0000.0001) 
(PID.TID 0000.0001) // =======================================================
(PID.TID 0000.0001) // Field hFacC at iteration          1
(PID.TID 0000.0001) // CMIN =          1.000000000000000E+00
(PID.TID 0000.0001) // CMAX =          1.000000000000000E+00
(PID.TID 0000.0001) // CINT =          0.000000000000000E+00
(PID.TID 0000.0001) // SYMBOLS (CMIN->CMAX): -abcdefghijklmnopqrstuvwxyz+
(PID.TID 0000.0001) //                  0.0: .
(PID.TID 0000.0001) // RANGE I (Lo:Hi:Step):(  -1:  92:   1)
(PID.TID 0000.0001) // RANGE J (Lo:Hi:Step):(  42:  -1:  -1)
(PID.TID 0000.0001) // RANGE K (Lo:Hi:Step):(   1:   1:   1)
(PID.TID 0000.0001) // =======================================================
(PID.TID 0000.0001) // =======================================================
(PID.TID 0000.0001) // END OF FIELD                                          =
(PID.TID 0000.0001) // =======================================================
(PID.TID 0000.0001) 
(PID.TID 0000.0001) // =======================================================
(PID.TID 0000.0001) // Field hFacW at iteration          1
(PID.TID 0000.0001) // CMIN =          1.000000000000000E+00
(PID.TID 0000.0001) // CMAX =          1.000000000000000E+00
(PID.TID 0000.0001) // CINT =          0.000000000000000E+00
(PID.TID 0000.0001) // SYMBOLS (CMIN->CMAX): -abcdefghijklmnopqrstuvwxyz+
(PID.TID 0000.0001) //                  0.0: .
(PID.TID 0000.0001) // RANGE I (Lo:Hi:Step):(  -1:  92:   1)
(PID.TID 0000.0001) // RANGE J (Lo:Hi:Step):(  42:  -1:  -1)
(PID.TID 0000.0001) // RANGE K (Lo:Hi:Step):(   1:   1:   1)
(PID.TID 0000.0001) // =======================================================
(PID.TID 0000.0001) // =======================================================
(PID.TID 0000.0001) // END OF FIELD                                          =
(PID.TID 0000.0001) // =======================================================
(PID.TID 0000.0001) 
(PID.TID 0000.0001) // =======================================================
(PID.TID 0000.0001) // Field hFacS at iteration          1
(PID.TID 0000.0001) // CMIN =          1.000000000000000E+00
(PID.TID 0000.0001) // CMAX =          1.000000000000000E+00
(PID.TID 0000.0001) // CINT =          0.000000000000000E+00
(PID.TID 0000.0001) // SYMBOLS (CMIN->CMAX): -abcdefghijklmnopqrstuvwxyz+
(PID.TID 0000.0001) //                  0.0: .
(PID.TID 0000.0001) // RANGE I (Lo:Hi:Step):(  -1:  92:   1)
(PID.TID 0000.0001) // RANGE J (Lo:Hi:Step):(  42:  -1:  -1)
(PID.TID 0000.0001) // RANGE K (Lo:Hi:Step):(   1:   1:   1)
(PID.TID 0000.0001) // =======================================================
(PID.TID 0000.0001) // =======================================================
(PID.TID 0000.0001) // END OF FIELD                                          =
(PID.TID 0000.0001) // =======================================================
(PID.TID 0000.0001) 
(PID.TID 0000.0001) 
(PID.TID 0000.0001) // ===================================
(PID.TID 0000.0001) // GAD parameters :
(PID.TID 0000.0001) // ===================================
(PID.TID 0000.0001) tempAdvScheme =   /* Temp. Horiz.Advection scheme selector */
(PID.TID 0000.0001)                       2
(PID.TID 0000.0001)     ;
(PID.TID 0000.0001) tempVertAdvScheme =   /* Temp. Vert. Advection scheme selector */
(PID.TID 0000.0001)                       2
(PID.TID 0000.0001)     ;
(PID.TID 0000.0001) tempMultiDimAdvec =   /* use Muti-Dim Advec method for Temp */
(PID.TID 0000.0001)                   F
(PID.TID 0000.0001)     ;
(PID.TID 0000.0001) tempAdamsBashforth =   /* use Adams-Bashforth time-stepping for Temp */
(PID.TID 0000.0001)                   T
(PID.TID 0000.0001)     ;
(PID.TID 0000.0001) saltAdvScheme =   /* Salt. Horiz.advection scheme selector */
(PID.TID 0000.0001)                       2
(PID.TID 0000.0001)     ;
(PID.TID 0000.0001) saltVertAdvScheme =   /* Salt. Vert. Advection scheme selector */
(PID.TID 0000.0001)                       2
(PID.TID 0000.0001)     ;
(PID.TID 0000.0001) saltMultiDimAdvec =   /* use Muti-Dim Advec method for Salt */
(PID.TID 0000.0001)                   F
(PID.TID 0000.0001)     ;
(PID.TID 0000.0001) saltAdamsBashforth =   /* use Adams-Bashforth time-stepping for Salt */
(PID.TID 0000.0001)                   T
(PID.TID 0000.0001)     ;
(PID.TID 0000.0001) // ===================================
(PID.TID 0000.0001) %MON fCori_max                    =   1.4226580169407E-04
(PID.TID 0000.0001) %MON fCori_min                    =  -1.4226580169407E-04
(PID.TID 0000.0001) %MON fCori_mean                   =  -1.9274705288631E-19
(PID.TID 0000.0001) %MON fCori_sd                     =   9.6335367303779E-05
(PID.TID 0000.0001) %MON fCoriG_max                   =   1.4112379284621E-04
(PID.TID 0000.0001) %MON fCoriG_min                   =  -1.4323448157692E-04
(PID.TID 0000.0001) %MON fCoriG_mean                  =  -3.6726790147926E-06
(PID.TID 0000.0001) %MON fCoriG_sd                    =   9.7510077443651E-05
(PID.TID 0000.0001) %MON fCoriCos_max                 =   1.4535550371427E-04
(PID.TID 0000.0001) %MON fCoriCos_min                 =   3.0239529651320E-05
(PID.TID 0000.0001) %MON fCoriCos_mean                =   1.0260497651149E-04
(PID.TID 0000.0001) %MON fCoriCos_sd                  =   3.6683828681187E-05
(PID.TID 0000.0001) // CG2D normalisation factor =          0.8831987737220080357351815E-04
(PID.TID 0000.0001) 
(PID.TID 0000.0001) CONFIG_CHECK: OK
(PID.TID 0000.0001) // =======================================================
(PID.TID 0000.0001) // Model configuration
(PID.TID 0000.0001) // =======================================================
(PID.TID 0000.0001) //
(PID.TID 0000.0001) // "Physical" paramters ( PARM01 in namelist )
(PID.TID 0000.0001) //
(PID.TID 0000.0001) buoyancyRelation = OCEANIC
(PID.TID 0000.0001) fluidIsAir  =  /* fluid major constituent is Air */
(PID.TID 0000.0001)                   F
(PID.TID 0000.0001)     ;
(PID.TID 0000.0001) fluidIsWater=  /* fuild major constituent is Water */
(PID.TID 0000.0001)                   T
(PID.TID 0000.0001)     ;
(PID.TID 0000.0001) usingPCoords =  /* use p (or p*) vertical coordinate */
(PID.TID 0000.0001)                   F
(PID.TID 0000.0001)     ;
(PID.TID 0000.0001) usingZCoords =  /* use z (or z*) vertical coordinate */
(PID.TID 0000.0001)                   T
(PID.TID 0000.0001)     ;
(PID.TID 0000.0001) tRef =   /* Reference temperature profile ( oC or oK ) */
(PID.TID 0000.0001)                 1.600000000000000E+01,      /* K =  1 */
(PID.TID 0000.0001)                 1.520000000000000E+01,      /* K =  2 */
(PID.TID 0000.0001)                 1.450000000000000E+01,      /* K =  3 */
(PID.TID 0000.0001)                 1.390000000000000E+01,      /* K =  4 */
(PID.TID 0000.0001)                 1.330000000000000E+01,      /* K =  5 */
(PID.TID 0000.0001)                 1.240000000000000E+01,      /* K =  6 */
(PID.TID 0000.0001)                 1.130000000000000E+01,      /* K =  7 */
(PID.TID 0000.0001)                 9.900000000000000E+00,      /* K =  8 */
(PID.TID 0000.0001)                 8.400000000000000E+00,      /* K =  9 */
(PID.TID 0000.0001)                 6.700000000000000E+00,      /* K = 10 */
(PID.TID 0000.0001)                 5.200000000000000E+00,      /* K = 11 */
(PID.TID 0000.0001)                 3.800000000000000E+00,      /* K = 12 */
(PID.TID 0000.0001)                 2.900000000000000E+00,      /* K = 13 */
(PID.TID 0000.0001)                 2.300000000000000E+00,      /* K = 14 */
(PID.TID 0000.0001)                 1.800000000000000E+00,      /* K = 15 */
(PID.TID 0000.0001)                 1.500000000000000E+00,      /* K = 16 */
(PID.TID 0000.0001)                 1.100000000000000E+00,      /* K = 17 */
(PID.TID 0000.0001)                 8.000000000000000E-01,      /* K = 18 */
(PID.TID 0000.0001)                 6.600000000000000E-01,      /* K = 19 */
(PID.TID 0000.0001)                 6.300000000000000E-01       /* K = 20 */
(PID.TID 0000.0001)     ;
(PID.TID 0000.0001) sRef =   /* Reference salinity profile ( ppt ) */
(PID.TID 0000.0001)                 3.465000000000000E+01,      /* K =  1 */
(PID.TID 0000.0001)                 3.475000000000000E+01,      /* K =  2 */
(PID.TID 0000.0001)                 3.482000000000000E+01,      /* K =  3 */
(PID.TID 0000.0001)                 3.487000000000000E+01,      /* K =  4 */
(PID.TID 0000.0001)     2 @  3.490000000000000E+01,             /* K =  5:  6 */
(PID.TID 0000.0001)                 3.486000000000000E+01,      /* K =  7 */
(PID.TID 0000.0001)                 3.478000000000000E+01,      /* K =  8 */
(PID.TID 0000.0001)                 3.469000000000000E+01,      /* K =  9 */
(PID.TID 0000.0001)                 3.460000000000000E+01,      /* K = 10 */
(PID.TID 0000.0001)                 3.458000000000000E+01,      /* K = 11 */
(PID.TID 0000.0001)                 3.462000000000000E+01,      /* K = 12 */
(PID.TID 0000.0001)                 3.468000000000000E+01,      /* K = 13 */
(PID.TID 0000.0001)                 3.472000000000000E+01,      /* K = 14 */
(PID.TID 0000.0001)                 3.473000000000000E+01,      /* K = 15 */
(PID.TID 0000.0001)                 3.474000000000000E+01,      /* K = 16 */
(PID.TID 0000.0001)     2 @  3.473000000000000E+01,             /* K = 17: 18 */
(PID.TID 0000.0001)     2 @  3.472000000000000E+01              /* K = 19: 20 */
(PID.TID 0000.0001)     ;
(PID.TID 0000.0001) viscAh =   /* Lateral eddy viscosity ( m^2/s ) */
(PID.TID 0000.0001)                 5.000000000000000E+05
(PID.TID 0000.0001)     ;
(PID.TID 0000.0001) viscAhMax =   /* Maximum lateral eddy viscosity ( m^2/s ) */
(PID.TID 0000.0001)                 1.000000000000000E+21
(PID.TID 0000.0001)     ;
(PID.TID 0000.0001) viscAhGrid =   /* Grid dependent lateral eddy viscosity ( non-dim. ) */
(PID.TID 0000.0001)                 0.000000000000000E+00
(PID.TID 0000.0001)     ;
(PID.TID 0000.0001) viscC2leith =   /* Leith harmonic viscosity factor ( non-dom. ) */
(PID.TID 0000.0001)                 0.000000000000000E+00
(PID.TID 0000.0001)     ;
(PID.TID 0000.0001) viscA4 =   /* Lateral biharmonic viscosity ( m^4/s ) */
(PID.TID 0000.0001)                 0.000000000000000E+00
(PID.TID 0000.0001)     ;
(PID.TID 0000.0001) viscA4Max =   /* Maximum biharmonic viscosity ( m^2/s ) */
(PID.TID 0000.0001)                 1.000000000000000E+21
(PID.TID 0000.0001)     ;
(PID.TID 0000.0001) viscA4Grid =   /* Grid dependent biharmonic viscosity ( non-dim. ) */
(PID.TID 0000.0001)                 0.000000000000000E+00
(PID.TID 0000.0001)     ;
(PID.TID 0000.0001) viscC4leith =   /* Leith biharmonic viscosity factor ( non-dom. ) */
(PID.TID 0000.0001)                 0.000000000000000E+00
(PID.TID 0000.0001)     ;
(PID.TID 0000.0001) no_slip_sides =  /* Viscous BCs: No-slip sides */
(PID.TID 0000.0001)                   F
(PID.TID 0000.0001)     ;
(PID.TID 0000.0001) viscAr =   /* Vertical eddy viscosity ( units of r^2/s ) */
(PID.TID 0000.0001)                 1.000000000000000E-03
(PID.TID 0000.0001)     ;
(PID.TID 0000.0001) no_slip_bottom =  /* Viscous BCs: No-slip bottom */
(PID.TID 0000.0001)                   T
(PID.TID 0000.0001)     ;
(PID.TID 0000.0001) diffKhT =   /* Laplacian diffusion of heat laterally ( m^2/s ) */
(PID.TID 0000.0001)                 1.000000000000000E+03
(PID.TID 0000.0001)     ;
(PID.TID 0000.0001) diffK4T =   /* Bihaarmonic diffusion of heat laterally ( m^4/s ) */
(PID.TID 0000.0001)                 0.000000000000000E+00
(PID.TID 0000.0001)     ;
(PID.TID 0000.0001) diffKhS =   /* Laplacian diffusion of salt laterally ( m^2/s ) */
(PID.TID 0000.0001)                 1.000000000000000E+03
(PID.TID 0000.0001)     ;
(PID.TID 0000.0001) diffK4S =   /* Bihaarmonic diffusion of salt laterally ( m^4/s ) */
(PID.TID 0000.0001)                 0.000000000000000E+00
(PID.TID 0000.0001)     ;
(PID.TID 0000.0001) diffKrNrT = /* vertical profile of vertical diffusion of Temp ( m^2/s )*/
(PID.TID 0000.0001)    20 @  3.000000000000000E-05              /* K =  1: 20 */
(PID.TID 0000.0001)     ;
(PID.TID 0000.0001) diffKrNrS = /* vertical profile of vertical diffusion of Salt ( m^2/s )*/
(PID.TID 0000.0001)    20 @  3.000000000000000E-05              /* K =  1: 20 */
(PID.TID 0000.0001)     ;
(PID.TID 0000.0001) diffKrBL79surf =   /* Surface diffusion for Bryan and Lewis 1979 ( m^2/s ) */
(PID.TID 0000.0001)                 0.000000000000000E+00
(PID.TID 0000.0001)     ;
(PID.TID 0000.0001) diffKrBL79deep =   /* Deep diffusion for Bryan and Lewis 1979 ( m^2/s ) */
(PID.TID 0000.0001)                 0.000000000000000E+00
(PID.TID 0000.0001)     ;
(PID.TID 0000.0001) diffKrBL79scl =   /* Depth scale for Bryan and Lewis 1979 ( m ) */
(PID.TID 0000.0001)                 2.000000000000000E+02
(PID.TID 0000.0001)     ;
(PID.TID 0000.0001) diffKrBL79Ho =   /* Turning depth for Bryan and Lewis 1979 ( m ) */
(PID.TID 0000.0001)                -2.000000000000000E+03
(PID.TID 0000.0001)     ;
(PID.TID 0000.0001)  Equation of State : eosType = LINEAR
(PID.TID 0000.0001) tAlpha =   /* Linear EOS thermal expansion coefficient ( 1/degree ) */
(PID.TID 0000.0001)                 2.000000000000000E-04
(PID.TID 0000.0001)     ;
(PID.TID 0000.0001) sBeta =   /* Linear EOS haline contraction coefficient ( 1/ppt ) */
(PID.TID 0000.0001)                 7.400000000000000E-04
(PID.TID 0000.0001)     ;
(PID.TID 0000.0001) rhonil =   /* Reference density ( kg/m^3 ) */
(PID.TID 0000.0001)                 9.998000000000000E+02
(PID.TID 0000.0001)     ;
(PID.TID 0000.0001) rhoConst =   /* Reference density ( kg/m^3 ) */
(PID.TID 0000.0001)                 9.998000000000000E+02
(PID.TID 0000.0001)     ;
(PID.TID 0000.0001) rhoConstFresh =   /* Reference density ( kg/m^3 ) */
(PID.TID 0000.0001)                 9.998000000000000E+02
(PID.TID 0000.0001)     ;
(PID.TID 0000.0001) gravity =   /* Gravitational acceleration ( m/s^2 ) */
(PID.TID 0000.0001)                 9.810000000000000E+00
(PID.TID 0000.0001)     ;
(PID.TID 0000.0001) gBaro =   /* Barotropic gravity ( m/s^2 ) */
(PID.TID 0000.0001)                 9.810000000000000E+00
(PID.TID 0000.0001)     ;
(PID.TID 0000.0001) rotationPeriod =   /* Rotation Period ( s ) */
(PID.TID 0000.0001)                 8.640000000000000E+04
(PID.TID 0000.0001)     ;
(PID.TID 0000.0001) omega =   /* Angular velocity ( rad/s ) */
(PID.TID 0000.0001)                 7.272205216643040E-05
(PID.TID 0000.0001)     ;
(PID.TID 0000.0001) f0 =   /* Reference coriolis parameter ( 1/s ) */
(PID.TID 0000.0001)                 1.000000000000000E-04
(PID.TID 0000.0001)     ;
(PID.TID 0000.0001) beta =   /* Beta ( 1/(m.s) ) */
(PID.TID 0000.0001)                 9.999999999999999E-12
(PID.TID 0000.0001)     ;
(PID.TID 0000.0001) freeSurfFac =   /* Implicit free surface factor */
(PID.TID 0000.0001)                 1.000000000000000E+00
(PID.TID 0000.0001)     ;
(PID.TID 0000.0001) implicitFreeSurface =   /* Implicit free surface on/off flag */
(PID.TID 0000.0001)                   T
(PID.TID 0000.0001)     ;
(PID.TID 0000.0001) rigidLid =   /* Rigid lid on/off flag */
(PID.TID 0000.0001)                   F
(PID.TID 0000.0001)     ;
(PID.TID 0000.0001) implicSurfPress =   /* Surface Pressure implicit factor (0-1)*/
(PID.TID 0000.0001)                 1.000000000000000E+00
(PID.TID 0000.0001)     ;
(PID.TID 0000.0001) implicDiv2Dflow =   /* Barot. Flow Div. implicit factor (0-1)*/
(PID.TID 0000.0001)                 1.000000000000000E+00
(PID.TID 0000.0001)     ;
(PID.TID 0000.0001) exactConserv =   /* Exact Volume Conservation on/off flag*/
(PID.TID 0000.0001)                   F
(PID.TID 0000.0001)     ;
(PID.TID 0000.0001) uniformLin_PhiSurf =   /* use uniform Bo_surf on/off flag*/
(PID.TID 0000.0001)                   T
(PID.TID 0000.0001)     ;
(PID.TID 0000.0001) nonlinFreeSurf =   /* Non-linear Free Surf. options (-1,0,1,2,3)*/
(PID.TID 0000.0001)                       0
(PID.TID 0000.0001)     ;
(PID.TID 0000.0001)      -1,0= Off ; 1,2,3= On, 2=+rescale gU,gV, 3=+update cg2d solv.
(PID.TID 0000.0001) hFacInf =   /* lower threshold for hFac (nonlinFreeSurf only)*/
(PID.TID 0000.0001)                 2.000000000000000E-01
(PID.TID 0000.0001)     ;
(PID.TID 0000.0001) hFacSup =   /* upper threshold for hFac (nonlinFreeSurf only)*/
(PID.TID 0000.0001)                 2.000000000000000E+00
(PID.TID 0000.0001)     ;
(PID.TID 0000.0001) select_rStar =   /* r* Coordinate options (not yet implemented)*/
(PID.TID 0000.0001)                       0
(PID.TID 0000.0001)     ;
(PID.TID 0000.0001) useRealFreshWaterFlux =   /* Real Fresh Water Flux on/off flag*/
(PID.TID 0000.0001)                   F
(PID.TID 0000.0001)     ;
(PID.TID 0000.0001) convertFW2Salt = /* convert F.W. Flux to Salt Flux (-1=use local S)(ppt)*/
(PID.TID 0000.0001)                 3.500000000000000E+01
(PID.TID 0000.0001)     ;
(PID.TID 0000.0001) nonHydrostatic =  /* Non-Hydrostatic on/off flag */
(PID.TID 0000.0001)                   F
(PID.TID 0000.0001)     ;
(PID.TID 0000.0001) momStepping =  /* Momentum equation on/off flag */
(PID.TID 0000.0001)                   T
(PID.TID 0000.0001)     ;
(PID.TID 0000.0001) momAdvection =  /* Momentum advection on/off flag */
(PID.TID 0000.0001)                   T
(PID.TID 0000.0001)     ;
(PID.TID 0000.0001) momViscosity =  /* Momentum viscosity on/off flag */
(PID.TID 0000.0001)                   T
(PID.TID 0000.0001)     ;
(PID.TID 0000.0001) momImplVertAdv =/* Momentum implicit vert. advection on/off*/
(PID.TID 0000.0001)                   F
(PID.TID 0000.0001)     ;
(PID.TID 0000.0001) implicitViscosity = /* Implicit viscosity on/off flag */
(PID.TID 0000.0001)                   F
(PID.TID 0000.0001)     ;
(PID.TID 0000.0001) useCoriolis =  /* Coriolis on/off flag */
(PID.TID 0000.0001)                   T
(PID.TID 0000.0001)     ;
(PID.TID 0000.0001) useCDscheme =  /* CD scheme on/off flag */
(PID.TID 0000.0001)                   T
(PID.TID 0000.0001)     ;
(PID.TID 0000.0001) useJamartWetPoints= /* Coriolis WetPoints method flag */
(PID.TID 0000.0001)                   F
(PID.TID 0000.0001)     ;
(PID.TID 0000.0001) useJamartMomAdv= /* V.I. Non-linear terms Jamart flag */
(PID.TID 0000.0001)                   F
(PID.TID 0000.0001)     ;
(PID.TID 0000.0001) SadournyCoriolis= /* Sadourny Coriolis discr. flag */
(PID.TID 0000.0001)                   F
(PID.TID 0000.0001)     ;
(PID.TID 0000.0001) upwindVorticity= /* Upwind bias vorticity flag */
(PID.TID 0000.0001)                   F
(PID.TID 0000.0001)     ;
(PID.TID 0000.0001) useAbsVorticity= /* Work with f+zeta in Coriolis */
(PID.TID 0000.0001)                   F
(PID.TID 0000.0001)     ;
(PID.TID 0000.0001) highOrderVorticity= /* High order interp. of vort. flag */
(PID.TID 0000.0001)                   F
(PID.TID 0000.0001)     ;
(PID.TID 0000.0001) momForcing =  /* Momentum forcing on/off flag */
(PID.TID 0000.0001)                   T
(PID.TID 0000.0001)     ;
(PID.TID 0000.0001) momPressureForcing =  /* Momentum pressure term on/off flag */
(PID.TID 0000.0001)                   T
(PID.TID 0000.0001)     ;
(PID.TID 0000.0001) staggerTimeStep =   /* Stagger time stepping on/off flag */
(PID.TID 0000.0001)                   F
(PID.TID 0000.0001)     ;
(PID.TID 0000.0001) multiDimAdvection =   /* enable/disable Multi-Dim Advection */
(PID.TID 0000.0001)                   T
(PID.TID 0000.0001)     ;
(PID.TID 0000.0001) useMultiDimAdvec =   /* Multi-Dim Advection is/is-not used */
(PID.TID 0000.0001)                   F
(PID.TID 0000.0001)     ;
(PID.TID 0000.0001) implicitDiffusion =/* Implicit Diffusion on/off flag */
(PID.TID 0000.0001)                   F
(PID.TID 0000.0001)     ;
(PID.TID 0000.0001) tempStepping =  /* Temperature equation on/off flag */
(PID.TID 0000.0001)                   T
(PID.TID 0000.0001)     ;
(PID.TID 0000.0001) tempAdvection=  /* Temperature advection on/off flag */
(PID.TID 0000.0001)                   T
(PID.TID 0000.0001)     ;
(PID.TID 0000.0001) tempImplVertAdv =/* Temp. implicit vert. advection on/off */
(PID.TID 0000.0001)                   F
(PID.TID 0000.0001)     ;
(PID.TID 0000.0001) tempForcing  =  /* Temperature forcing on/off flag */
(PID.TID 0000.0001)                   T
(PID.TID 0000.0001)     ;
(PID.TID 0000.0001) saltStepping =  /* Salinity equation on/off flag */
(PID.TID 0000.0001)                   T
(PID.TID 0000.0001)     ;
(PID.TID 0000.0001) saltAdvection=  /* Salinity advection on/off flag */
(PID.TID 0000.0001)                   T
(PID.TID 0000.0001)     ;
(PID.TID 0000.0001) saltImplVertAdv =/* Sali. implicit vert. advection on/off */
(PID.TID 0000.0001)                   F
(PID.TID 0000.0001)     ;
(PID.TID 0000.0001) saltForcing  =  /* Salinity forcing on/off flag */
(PID.TID 0000.0001)                   T
(PID.TID 0000.0001)     ;
(PID.TID 0000.0001) //
(PID.TID 0000.0001) // Elliptic solver(s) paramters ( PARM02 in namelist )
(PID.TID 0000.0001) //
(PID.TID 0000.0001) cg2dMaxIters =   /* Upper limit on 2d con. grad iterations  */
(PID.TID 0000.0001)                    1000
(PID.TID 0000.0001)     ;
(PID.TID 0000.0001) cg2dChkResFreq =   /* 2d con. grad convergence test frequency */
(PID.TID 0000.0001)                       1
(PID.TID 0000.0001)     ;
(PID.TID 0000.0001) cg2dTargetResidual =   /* 2d con. grad target residual  */
(PID.TID 0000.0001)                 1.000000000000000E-13
(PID.TID 0000.0001)     ;
(PID.TID 0000.0001) cg2dTargetResWunit =   /* CG2d target residual [W units] */
(PID.TID 0000.0001)                -1.000000000000000E+00
(PID.TID 0000.0001)     ;
(PID.TID 0000.0001) cg2dPreCondFreq =   /* Freq. for updating cg2d preconditioner */
(PID.TID 0000.0001)                       1
(PID.TID 0000.0001)     ;
(PID.TID 0000.0001) //
(PID.TID 0000.0001) // Time stepping paramters ( PARM03 in namelist )
(PID.TID 0000.0001) //
(PID.TID 0000.0001) nIter0 =   /* Base timestep number  */
(PID.TID 0000.0001)                       0
(PID.TID 0000.0001)     ;
(PID.TID 0000.0001) nTimeSteps =   /* Number of timesteps */
(PID.TID 0000.0001)                      26
(PID.TID 0000.0001)     ;
(PID.TID 0000.0001) deltatTmom =   /* Momentum equation timestep ( s ) */
(PID.TID 0000.0001)                 2.400000000000000E+03
(PID.TID 0000.0001)     ;
(PID.TID 0000.0001) deltaTfreesurf =   /* FreeSurface equation timestep ( s ) */
(PID.TID 0000.0001)                 2.400000000000000E+03
(PID.TID 0000.0001)     ;
(PID.TID 0000.0001) dTtracerLev =   /* Tracer equation timestep ( s ) */
(PID.TID 0000.0001)    20 @  1.080000000000000E+05              /* K =  1: 20 */
(PID.TID 0000.0001)     ;
(PID.TID 0000.0001) deltatTClock  =   /* Model clock timestep ( s ) */
(PID.TID 0000.0001)                 1.080000000000000E+05
(PID.TID 0000.0001)     ;
(PID.TID 0000.0001) cAdjFreq =   /* Convective adjustment interval ( s ) */
(PID.TID 0000.0001)                 1.080000000000000E+05
(PID.TID 0000.0001)     ;
(PID.TID 0000.0001) forcing_In_AB =   /* put T,S Forcing in Adams-Bash. stepping */
(PID.TID 0000.0001)                   T
(PID.TID 0000.0001)     ;
(PID.TID 0000.0001) abeps =   /* Adams-Bashforth stabilizing weight */
(PID.TID 0000.0001)                 1.000000000000000E-01
(PID.TID 0000.0001)     ;
(PID.TID 0000.0001) tauCD =   /* CD coupling time-scale ( s ) */
(PID.TID 0000.0001)                 3.214280000000000E+05
(PID.TID 0000.0001)     ;
(PID.TID 0000.0001) rCD =   /* Normalised CD coupling parameter */
(PID.TID 0000.0001)                 9.925333200592357E-01
(PID.TID 0000.0001)     ;
(PID.TID 0000.0001) startTime =   /* Run start time ( s ). */
(PID.TID 0000.0001)                 0.000000000000000E+00
(PID.TID 0000.0001)     ;
(PID.TID 0000.0001) endTime =   /* Integration ending time ( s ). */
(PID.TID 0000.0001)                 2.808000000000000E+06
(PID.TID 0000.0001)     ;
(PID.TID 0000.0001) pChkPtFreq =   /* Permanent restart/checkpoint file interval ( s ). */
(PID.TID 0000.0001)                 0.000000000000000E+00
(PID.TID 0000.0001)     ;
(PID.TID 0000.0001) chkPtFreq =   /* Rolling restart/checkpoint file interval ( s ). */
(PID.TID 0000.0001)                 0.000000000000000E+00
(PID.TID 0000.0001)     ;
(PID.TID 0000.0001) pickup_write_mdsio =   /* Model IO flag. */
(PID.TID 0000.0001)                   T
(PID.TID 0000.0001)     ;
(PID.TID 0000.0001) pickup_read_mdsio =   /* Model IO flag. */
(PID.TID 0000.0001)                   T
(PID.TID 0000.0001)     ;
(PID.TID 0000.0001) pickup_write_immed =   /* Model IO flag. */
(PID.TID 0000.0001)                   F
(PID.TID 0000.0001)     ;
(PID.TID 0000.0001) dumpFreq =   /* Model state write out interval ( s ). */
(PID.TID 0000.0001)                 2.592000000000000E+06
(PID.TID 0000.0001)     ;
(PID.TID 0000.0001) snapshot_mdsio =   /* Model IO flag. */
(PID.TID 0000.0001)                   T
(PID.TID 0000.0001)     ;
(PID.TID 0000.0001) monitorFreq =   /* Monitor output interval ( s ). */
(PID.TID 0000.0001)                 1.000000000000000E+00
(PID.TID 0000.0001)     ;
(PID.TID 0000.0001) monitor_stdio =   /* Model IO flag. */
(PID.TID 0000.0001)                   T
(PID.TID 0000.0001)     ;
(PID.TID 0000.0001) externForcingPeriod =   /* forcing period (s) */
(PID.TID 0000.0001)                 0.000000000000000E+00
(PID.TID 0000.0001)     ;
(PID.TID 0000.0001) externForcingCycle =   /* period of the cyle (s). */
(PID.TID 0000.0001)                 0.000000000000000E+00
(PID.TID 0000.0001)     ;
(PID.TID 0000.0001) tauThetaClimRelax =   /* relaxation time scale (s) */
(PID.TID 0000.0001)                 2.592000000000000E+06
(PID.TID 0000.0001)     ;
(PID.TID 0000.0001) tauSaltClimRelax =   /* relaxation time scale (s) */
(PID.TID 0000.0001)                 2.592000000000000E+06
(PID.TID 0000.0001)     ;
(PID.TID 0000.0001) latBandClimRelax =   /* max. Lat. where relaxation */
(PID.TID 0000.0001)                 1.800000000000000E+02
(PID.TID 0000.0001)     ;
(PID.TID 0000.0001) //
(PID.TID 0000.0001) // Gridding paramters ( PARM04 in namelist )
(PID.TID 0000.0001) //
(PID.TID 0000.0001) usingCartesianGrid =   /* Cartesian coordinates flag ( True / False ) */
(PID.TID 0000.0001)                   F
(PID.TID 0000.0001)     ;
(PID.TID 0000.0001) usingSphericalPolarGrid =   /* Spherical coordinates flag ( True / False ) */
(PID.TID 0000.0001)                   T
(PID.TID 0000.0001)     ;
(PID.TID 0000.0001) usingCylindricalGrid =   /* Spherical coordinates flag ( True / False ) */
(PID.TID 0000.0001)                   F
(PID.TID 0000.0001)     ;
(PID.TID 0000.0001) groundAtK1 =   /* Lower Boundary (ground) at the surface(k=1) ( T / F ) */
(PID.TID 0000.0001)                   F
(PID.TID 0000.0001)     ;
(PID.TID 0000.0001) Ro_SeaLevel =   /* r(1) ( units of r ) */
(PID.TID 0000.0001)                 0.000000000000000E+00
(PID.TID 0000.0001)     ;
(PID.TID 0000.0001) rkFac =   /* minus Vertical index orientation  */
(PID.TID 0000.0001)                 1.000000000000000E+00
(PID.TID 0000.0001)     ;
(PID.TID 0000.0001) horiVertRatio =   /* Ratio on units : Horiz - Vertical */
(PID.TID 0000.0001)                 1.000000000000000E+00
(PID.TID 0000.0001)     ;
(PID.TID 0000.0001) drC =   /* C spacing ( units of r ) */
(PID.TID 0000.0001)                 2.500000000000000E+01,      /* K =  1 */
(PID.TID 0000.0001)                 5.000000000000000E+01,      /* K =  2 */
(PID.TID 0000.0001)                 5.250000000000000E+01,      /* K =  3 */
(PID.TID 0000.0001)                 5.750000000000000E+01,      /* K =  4 */
(PID.TID 0000.0001)                 6.250000000000000E+01,      /* K =  5 */
(PID.TID 0000.0001)                 6.750000000000000E+01,      /* K =  6 */
(PID.TID 0000.0001)                 7.500000000000000E+01,      /* K =  7 */
(PID.TID 0000.0001)                 8.750000000000000E+01,      /* K =  8 */
(PID.TID 0000.0001)                 1.075000000000000E+02,      /* K =  9 */
(PID.TID 0000.0001)                 1.375000000000000E+02,      /* K = 10 */
(PID.TID 0000.0001)                 1.775000000000000E+02,      /* K = 11 */
(PID.TID 0000.0001)                 2.300000000000000E+02,      /* K = 12 */
(PID.TID 0000.0001)                 2.900000000000000E+02,      /* K = 13 */
(PID.TID 0000.0001)                 3.600000000000000E+02,      /* K = 14 */
(PID.TID 0000.0001)                 4.400000000000000E+02,      /* K = 15 */
(PID.TID 0000.0001)                 5.250000000000000E+02,      /* K = 16 */
(PID.TID 0000.0001)                 6.125000000000000E+02,      /* K = 17 */
(PID.TID 0000.0001)                 6.900000000000000E+02,      /* K = 18 */
(PID.TID 0000.0001)                 7.500000000000000E+02,      /* K = 19 */
(PID.TID 0000.0001)                 7.950000000000000E+02       /* K = 20 */
(PID.TID 0000.0001)     ;
(PID.TID 0000.0001) drF =   /* W spacing ( units of r ) */
(PID.TID 0000.0001)     2 @  5.000000000000000E+01,             /* K =  1:  2 */
(PID.TID 0000.0001)                 5.500000000000000E+01,      /* K =  3 */
(PID.TID 0000.0001)                 6.000000000000000E+01,      /* K =  4 */
(PID.TID 0000.0001)                 6.500000000000000E+01,      /* K =  5 */
(PID.TID 0000.0001)                 7.000000000000000E+01,      /* K =  6 */
(PID.TID 0000.0001)                 8.000000000000000E+01,      /* K =  7 */
(PID.TID 0000.0001)                 9.500000000000000E+01,      /* K =  8 */
(PID.TID 0000.0001)                 1.200000000000000E+02,      /* K =  9 */
(PID.TID 0000.0001)                 1.550000000000000E+02,      /* K = 10 */
(PID.TID 0000.0001)                 2.000000000000000E+02,      /* K = 11 */
(PID.TID 0000.0001)                 2.600000000000000E+02,      /* K = 12 */
(PID.TID 0000.0001)                 3.200000000000000E+02,      /* K = 13 */
(PID.TID 0000.0001)                 4.000000000000000E+02,      /* K = 14 */
(PID.TID 0000.0001)                 4.800000000000000E+02,      /* K = 15 */
(PID.TID 0000.0001)                 5.700000000000000E+02,      /* K = 16 */
(PID.TID 0000.0001)                 6.550000000000000E+02,      /* K = 17 */
(PID.TID 0000.0001)                 7.250000000000000E+02,      /* K = 18 */
(PID.TID 0000.0001)                 7.750000000000000E+02,      /* K = 19 */
(PID.TID 0000.0001)                 8.150000000000000E+02       /* K = 20 */
(PID.TID 0000.0001)     ;
(PID.TID 0000.0001) delX =   /* U spacing ( m - cartesian, degrees - spherical ) */
(PID.TID 0000.0001)    90 @  4.000000000000000E+00              /* I =  1: 90 */
(PID.TID 0000.0001)     ;
(PID.TID 0000.0001) delY =   /* V spacing ( m - cartesian, degrees - spherical ) */
(PID.TID 0000.0001)    40 @  4.000000000000000E+00              /* J =  1: 40 */
(PID.TID 0000.0001)     ;
(PID.TID 0000.0001) phiMin =    /* South edge (ignored - cartesian, degrees - spherical ) */
(PID.TID 0000.0001)                -8.000000000000000E+01
(PID.TID 0000.0001)     ;
(PID.TID 0000.0001) thetaMin =    /* West edge ( ignored - cartesian, degrees - spherical ) */
(PID.TID 0000.0001)                 0.000000000000000E+00
(PID.TID 0000.0001)     ;
(PID.TID 0000.0001) rSphere =    /* Radius ( ignored - cartesian, m - spherical ) */
(PID.TID 0000.0001)                 6.370000000000000E+06
(PID.TID 0000.0001)     ;
(PID.TID 0000.0001) xcoord =   /* P-point X coord ( m - cartesian, degrees - spherical ) */
(PID.TID 0000.0001)                 2.000000000000000E+00,      /* I =  1 */
(PID.TID 0000.0001)                 6.000000000000000E+00,      /* I =  2 */
(PID.TID 0000.0001)                 1.000000000000000E+01,      /* I =  3 */
(PID.TID 0000.0001)                 1.400000000000000E+01,      /* I =  4 */
(PID.TID 0000.0001)                 1.800000000000000E+01,      /* I =  5 */
(PID.TID 0000.0001)                 2.200000000000000E+01,      /* I =  6 */
(PID.TID 0000.0001)                 2.600000000000000E+01,      /* I =  7 */
(PID.TID 0000.0001)                 3.000000000000000E+01,      /* I =  8 */
(PID.TID 0000.0001)                 3.400000000000000E+01,      /* I =  9 */
(PID.TID 0000.0001)                 3.800000000000000E+01,      /* I = 10 */
(PID.TID 0000.0001)                 4.200000000000000E+01,      /* I = 11 */
(PID.TID 0000.0001)                 4.600000000000000E+01,      /* I = 12 */
(PID.TID 0000.0001)                 5.000000000000000E+01,      /* I = 13 */
(PID.TID 0000.0001)                 5.400000000000000E+01,      /* I = 14 */
(PID.TID 0000.0001)                 5.800000000000000E+01,      /* I = 15 */
(PID.TID 0000.0001)                 6.200000000000000E+01,      /* I = 16 */
(PID.TID 0000.0001)                 6.600000000000000E+01,      /* I = 17 */
(PID.TID 0000.0001)                 7.000000000000000E+01,      /* I = 18 */
(PID.TID 0000.0001)                 7.400000000000000E+01,      /* I = 19 */
(PID.TID 0000.0001)                 7.800000000000000E+01,      /* I = 20 */
(PID.TID 0000.0001)                 8.200000000000000E+01,      /* I = 21 */
(PID.TID 0000.0001)                 8.600000000000000E+01,      /* I = 22 */
(PID.TID 0000.0001)                 9.000000000000000E+01,      /* I = 23 */
(PID.TID 0000.0001)                 9.400000000000000E+01,      /* I = 24 */
(PID.TID 0000.0001)                 9.800000000000000E+01,      /* I = 25 */
(PID.TID 0000.0001)                 1.020000000000000E+02,      /* I = 26 */
(PID.TID 0000.0001)                 1.060000000000000E+02,      /* I = 27 */
(PID.TID 0000.0001)                 1.100000000000000E+02,      /* I = 28 */
(PID.TID 0000.0001)                 1.140000000000000E+02,      /* I = 29 */
(PID.TID 0000.0001)                 1.180000000000000E+02,      /* I = 30 */
(PID.TID 0000.0001)                 1.220000000000000E+02,      /* I = 31 */
(PID.TID 0000.0001)                 1.260000000000000E+02,      /* I = 32 */
(PID.TID 0000.0001)                 1.300000000000000E+02,      /* I = 33 */
(PID.TID 0000.0001)                 1.340000000000000E+02,      /* I = 34 */
(PID.TID 0000.0001)                 1.380000000000000E+02,      /* I = 35 */
(PID.TID 0000.0001)                 1.420000000000000E+02,      /* I = 36 */
(PID.TID 0000.0001)                 1.460000000000000E+02,      /* I = 37 */
(PID.TID 0000.0001)                 1.500000000000000E+02,      /* I = 38 */
(PID.TID 0000.0001)                 1.540000000000000E+02,      /* I = 39 */
(PID.TID 0000.0001)                 1.580000000000000E+02,      /* I = 40 */
(PID.TID 0000.0001)                 1.620000000000000E+02,      /* I = 41 */
(PID.TID 0000.0001)                 1.660000000000000E+02,      /* I = 42 */
(PID.TID 0000.0001)                 1.700000000000000E+02,      /* I = 43 */
(PID.TID 0000.0001)                 1.740000000000000E+02,      /* I = 44 */
(PID.TID 0000.0001)                 1.780000000000000E+02,      /* I = 45 */
(PID.TID 0000.0001)                 1.820000000000000E+02,      /* I = 46 */
(PID.TID 0000.0001)                 1.860000000000000E+02,      /* I = 47 */
(PID.TID 0000.0001)                 1.900000000000000E+02,      /* I = 48 */
(PID.TID 0000.0001)                 1.940000000000000E+02,      /* I = 49 */
(PID.TID 0000.0001)                 1.980000000000000E+02,      /* I = 50 */
(PID.TID 0000.0001)                 2.020000000000000E+02,      /* I = 51 */
(PID.TID 0000.0001)                 2.060000000000000E+02,      /* I = 52 */
(PID.TID 0000.0001)                 2.100000000000000E+02,      /* I = 53 */
(PID.TID 0000.0001)                 2.140000000000000E+02,      /* I = 54 */
(PID.TID 0000.0001)                 2.180000000000000E+02,      /* I = 55 */
(PID.TID 0000.0001)                 2.220000000000000E+02,      /* I = 56 */
(PID.TID 0000.0001)                 2.260000000000000E+02,      /* I = 57 */
(PID.TID 0000.0001)                 2.300000000000000E+02,      /* I = 58 */
(PID.TID 0000.0001)                 2.340000000000000E+02,      /* I = 59 */
(PID.TID 0000.0001)                 2.380000000000000E+02,      /* I = 60 */
(PID.TID 0000.0001)                 2.420000000000000E+02,      /* I = 61 */
(PID.TID 0000.0001)                 2.460000000000000E+02,      /* I = 62 */
(PID.TID 0000.0001)                 2.500000000000000E+02,      /* I = 63 */
(PID.TID 0000.0001)                 2.540000000000000E+02,      /* I = 64 */
(PID.TID 0000.0001)                 2.580000000000000E+02,      /* I = 65 */
(PID.TID 0000.0001)                 2.620000000000000E+02,      /* I = 66 */
(PID.TID 0000.0001)                 2.660000000000000E+02,      /* I = 67 */
(PID.TID 0000.0001)                 2.700000000000000E+02,      /* I = 68 */
(PID.TID 0000.0001)                 2.740000000000000E+02,      /* I = 69 */
(PID.TID 0000.0001)                 2.780000000000000E+02,      /* I = 70 */
(PID.TID 0000.0001)                 2.820000000000000E+02,      /* I = 71 */
(PID.TID 0000.0001)                 2.860000000000000E+02,      /* I = 72 */
(PID.TID 0000.0001)                 2.900000000000000E+02,      /* I = 73 */
(PID.TID 0000.0001)                 2.940000000000000E+02,      /* I = 74 */
(PID.TID 0000.0001)                 2.980000000000000E+02,      /* I = 75 */
(PID.TID 0000.0001)                 3.020000000000000E+02,      /* I = 76 */
(PID.TID 0000.0001)                 3.060000000000000E+02,      /* I = 77 */
(PID.TID 0000.0001)                 3.100000000000000E+02,      /* I = 78 */
(PID.TID 0000.0001)                 3.140000000000000E+02,      /* I = 79 */
(PID.TID 0000.0001)                 3.180000000000000E+02,      /* I = 80 */
(PID.TID 0000.0001)                 3.220000000000000E+02,      /* I = 81 */
(PID.TID 0000.0001)                 3.260000000000000E+02,      /* I = 82 */
(PID.TID 0000.0001)                 3.300000000000000E+02,      /* I = 83 */
(PID.TID 0000.0001)                 3.340000000000000E+02,      /* I = 84 */
(PID.TID 0000.0001)                 3.380000000000000E+02,      /* I = 85 */
(PID.TID 0000.0001)                 3.420000000000000E+02,      /* I = 86 */
(PID.TID 0000.0001)                 3.460000000000000E+02,      /* I = 87 */
(PID.TID 0000.0001)                 3.500000000000000E+02,      /* I = 88 */
(PID.TID 0000.0001)                 3.540000000000000E+02,      /* I = 89 */
(PID.TID 0000.0001)                 3.580000000000000E+02       /* I = 90 */
(PID.TID 0000.0001)     ;
(PID.TID 0000.0001) ycoord =   /* P-point Y coord ( m - cartesian, degrees - spherical ) */
(PID.TID 0000.0001)                -7.800000000000000E+01,      /* J =  1 */
(PID.TID 0000.0001)                -7.400000000000000E+01,      /* J =  2 */
(PID.TID 0000.0001)                -7.000000000000000E+01,      /* J =  3 */
(PID.TID 0000.0001)                -6.600000000000000E+01,      /* J =  4 */
(PID.TID 0000.0001)                -6.200000000000000E+01,      /* J =  5 */
(PID.TID 0000.0001)                -5.800000000000000E+01,      /* J =  6 */
(PID.TID 0000.0001)                -5.400000000000000E+01,      /* J =  7 */
(PID.TID 0000.0001)                -5.000000000000000E+01,      /* J =  8 */
(PID.TID 0000.0001)                -4.600000000000000E+01,      /* J =  9 */
(PID.TID 0000.0001)                -4.200000000000000E+01,      /* J = 10 */
(PID.TID 0000.0001)                -3.800000000000000E+01,      /* J = 11 */
(PID.TID 0000.0001)                -3.400000000000000E+01,      /* J = 12 */
(PID.TID 0000.0001)                -3.000000000000000E+01,      /* J = 13 */
(PID.TID 0000.0001)                -2.600000000000000E+01,      /* J = 14 */
(PID.TID 0000.0001)                -2.200000000000000E+01,      /* J = 15 */
(PID.TID 0000.0001)                -1.800000000000000E+01,      /* J = 16 */
(PID.TID 0000.0001)                -1.400000000000000E+01,      /* J = 17 */
(PID.TID 0000.0001)                -1.000000000000000E+01,      /* J = 18 */
(PID.TID 0000.0001)                -6.000000000000000E+00,      /* J = 19 */
(PID.TID 0000.0001)                -2.000000000000000E+00,      /* J = 20 */
(PID.TID 0000.0001)                 2.000000000000000E+00,      /* J = 21 */
(PID.TID 0000.0001)                 6.000000000000000E+00,      /* J = 22 */
(PID.TID 0000.0001)                 1.000000000000000E+01,      /* J = 23 */
(PID.TID 0000.0001)                 1.400000000000000E+01,      /* J = 24 */
(PID.TID 0000.0001)                 1.800000000000000E+01,      /* J = 25 */
(PID.TID 0000.0001)                 2.200000000000000E+01,      /* J = 26 */
(PID.TID 0000.0001)                 2.600000000000000E+01,      /* J = 27 */
(PID.TID 0000.0001)                 3.000000000000000E+01,      /* J = 28 */
(PID.TID 0000.0001)                 3.400000000000000E+01,      /* J = 29 */
(PID.TID 0000.0001)                 3.800000000000000E+01,      /* J = 30 */
(PID.TID 0000.0001)                 4.200000000000000E+01,      /* J = 31 */
(PID.TID 0000.0001)                 4.600000000000000E+01,      /* J = 32 */
(PID.TID 0000.0001)                 5.000000000000000E+01,      /* J = 33 */
(PID.TID 0000.0001)                 5.400000000000000E+01,      /* J = 34 */
(PID.TID 0000.0001)                 5.800000000000000E+01,      /* J = 35 */
(PID.TID 0000.0001)                 6.200000000000000E+01,      /* J = 36 */
(PID.TID 0000.0001)                 6.600000000000000E+01,      /* J = 37 */
(PID.TID 0000.0001)                 7.000000000000000E+01,      /* J = 38 */
(PID.TID 0000.0001)                 7.400000000000000E+01,      /* J = 39 */
(PID.TID 0000.0001)                 7.800000000000000E+01       /* J = 40 */
(PID.TID 0000.0001)     ;
(PID.TID 0000.0001) rcoord =   /* P-point R coordinate (  units of r ) */
(PID.TID 0000.0001)                -2.500000000000000E+01,      /* K =  1 */
(PID.TID 0000.0001)                -7.500000000000000E+01,      /* K =  2 */
(PID.TID 0000.0001)                -1.275000000000000E+02,      /* K =  3 */
(PID.TID 0000.0001)                -1.850000000000000E+02,      /* K =  4 */
(PID.TID 0000.0001)                -2.475000000000000E+02,      /* K =  5 */
(PID.TID 0000.0001)                -3.150000000000000E+02,      /* K =  6 */
(PID.TID 0000.0001)                -3.900000000000000E+02,      /* K =  7 */
(PID.TID 0000.0001)                -4.775000000000000E+02,      /* K =  8 */
(PID.TID 0000.0001)                -5.850000000000000E+02,      /* K =  9 */
(PID.TID 0000.0001)                -7.225000000000000E+02,      /* K = 10 */
(PID.TID 0000.0001)                -9.000000000000000E+02,      /* K = 11 */
(PID.TID 0000.0001)                -1.130000000000000E+03,      /* K = 12 */
(PID.TID 0000.0001)                -1.420000000000000E+03,      /* K = 13 */
(PID.TID 0000.0001)                -1.780000000000000E+03,      /* K = 14 */
(PID.TID 0000.0001)                -2.220000000000000E+03,      /* K = 15 */
(PID.TID 0000.0001)                -2.745000000000000E+03,      /* K = 16 */
(PID.TID 0000.0001)                -3.357500000000000E+03,      /* K = 17 */
(PID.TID 0000.0001)                -4.047500000000000E+03,      /* K = 18 */
(PID.TID 0000.0001)                -4.797500000000000E+03,      /* K = 19 */
(PID.TID 0000.0001)                -5.592500000000000E+03       /* K = 20 */
(PID.TID 0000.0001)     ;
(PID.TID 0000.0001) rF =   /* W-Interf. R coordinate (  units of r ) */
(PID.TID 0000.0001)                 0.000000000000000E+00,      /* K =  1 */
(PID.TID 0000.0001)                -5.000000000000000E+01,      /* K =  2 */
(PID.TID 0000.0001)                -1.000000000000000E+02,      /* K =  3 */
(PID.TID 0000.0001)                -1.550000000000000E+02,      /* K =  4 */
(PID.TID 0000.0001)                -2.150000000000000E+02,      /* K =  5 */
(PID.TID 0000.0001)                -2.800000000000000E+02,      /* K =  6 */
(PID.TID 0000.0001)                -3.500000000000000E+02,      /* K =  7 */
(PID.TID 0000.0001)                -4.300000000000000E+02,      /* K =  8 */
(PID.TID 0000.0001)                -5.250000000000000E+02,      /* K =  9 */
(PID.TID 0000.0001)                -6.450000000000000E+02,      /* K = 10 */
(PID.TID 0000.0001)                -8.000000000000000E+02,      /* K = 11 */
(PID.TID 0000.0001)                -1.000000000000000E+03,      /* K = 12 */
(PID.TID 0000.0001)                -1.260000000000000E+03,      /* K = 13 */
(PID.TID 0000.0001)                -1.580000000000000E+03,      /* K = 14 */
(PID.TID 0000.0001)                -1.980000000000000E+03,      /* K = 15 */
(PID.TID 0000.0001)                -2.460000000000000E+03,      /* K = 16 */
(PID.TID 0000.0001)                -3.030000000000000E+03,      /* K = 17 */
(PID.TID 0000.0001)                -3.685000000000000E+03,      /* K = 18 */
(PID.TID 0000.0001)                -4.410000000000000E+03,      /* K = 19 */
(PID.TID 0000.0001)                -5.185000000000000E+03,      /* K = 20 */
(PID.TID 0000.0001)                -6.000000000000000E+03       /* K = 21 */
(PID.TID 0000.0001)     ;
(PID.TID 0000.0001) dxF =  /* dxF(:,1,:,1) ( m - cartesian, degrees - spherical ) */
(PID.TID 0000.0001)    90 @  9.246038586187513E+04              /* I =  1: 90 */
(PID.TID 0000.0001)     ;
(PID.TID 0000.0001) dxF =  /* dxF(1,:,1,:) ( m - cartesian, degrees - spherical ) */
(PID.TID 0000.0001)                 9.246038586187513E+04,      /* J =  1 */
(PID.TID 0000.0001)                 1.225786591246834E+05,      /* J =  2 */
(PID.TID 0000.0001)                 1.520997414818001E+05,      /* J =  3 */
(PID.TID 0000.0001)                 1.808798091874300E+05,      /* J =  4 */
(PID.TID 0000.0001)                 2.087786486446736E+05,      /* J =  5 */
(PID.TID 0000.0001)                 2.356603395120765E+05,      /* J =  6 */
(PID.TID 0000.0001)                 2.613939168938713E+05,      /* J =  7 */
(PID.TID 0000.0001)                 2.858540093877838E+05,      /* J =  8 */
(PID.TID 0000.0001)                 3.089214498819034E+05,      /* J =  9 */
(PID.TID 0000.0001)                 3.304838561248741E+05,      /* J = 10 */
(PID.TID 0000.0001)                 3.504361782409254E+05,      /* J = 11 */
(PID.TID 0000.0001)                 3.686812105223082E+05,      /* J = 12 */
(PID.TID 0000.0001)                 3.851300650057323E+05,      /* J = 13 */
(PID.TID 0000.0001)                 3.997026045255871E+05,      /* J = 14 */
(PID.TID 0000.0001)                 4.123278331341585E+05,      /* J = 15 */
(PID.TID 0000.0001)                 4.229442419867491E+05,      /* J = 16 */
(PID.TID 0000.0001)                 4.315001090065870E+05,      /* J = 17 */
(PID.TID 0000.0001)                 4.379537508695838E+05,      /* J = 18 */
(PID.TID 0000.0001)                 4.422737260813012E+05,      /* J = 19 */
(PID.TID 0000.0001)     2 @  4.444389881567502E+05,             /* J = 20: 21 */
(PID.TID 0000.0001)                 4.422737260813012E+05,      /* J = 22 */
(PID.TID 0000.0001)                 4.379537508695838E+05,      /* J = 23 */
(PID.TID 0000.0001)                 4.315001090065870E+05,      /* J = 24 */
(PID.TID 0000.0001)                 4.229442419867491E+05,      /* J = 25 */
(PID.TID 0000.0001)                 4.123278331341585E+05,      /* J = 26 */
(PID.TID 0000.0001)                 3.997026045255871E+05,      /* J = 27 */
(PID.TID 0000.0001)                 3.851300650057323E+05,      /* J = 28 */
(PID.TID 0000.0001)                 3.686812105223082E+05,      /* J = 29 */
(PID.TID 0000.0001)                 3.504361782409254E+05,      /* J = 30 */
(PID.TID 0000.0001)                 3.304838561248741E+05,      /* J = 31 */
(PID.TID 0000.0001)                 3.089214498819034E+05,      /* J = 32 */
(PID.TID 0000.0001)                 2.858540093877838E+05,      /* J = 33 */
(PID.TID 0000.0001)                 2.613939168938713E+05,      /* J = 34 */
(PID.TID 0000.0001)                 2.356603395120765E+05,      /* J = 35 */
(PID.TID 0000.0001)                 2.087786486446736E+05,      /* J = 36 */
(PID.TID 0000.0001)                 1.808798091874300E+05,      /* J = 37 */
(PID.TID 0000.0001)                 1.520997414818001E+05,      /* J = 38 */
(PID.TID 0000.0001)                 1.225786591246834E+05,      /* J = 39 */
(PID.TID 0000.0001)                 9.246038586187513E+04       /* J = 40 */
(PID.TID 0000.0001)     ;
(PID.TID 0000.0001) dyF =  /* dyF(:,1,:,1) ( m - cartesian, degrees - spherical ) */
(PID.TID 0000.0001)    90 @  4.447098934081552E+05              /* I =  1: 90 */
(PID.TID 0000.0001)     ;
(PID.TID 0000.0001) dyF =  /* dyF(1,:,1,:) ( m - cartesian, degrees - spherical ) */
(PID.TID 0000.0001)    40 @  4.447098934081552E+05              /* J =  1: 40 */
(PID.TID 0000.0001)     ;
(PID.TID 0000.0001) dxG =  /* dxG(:,1,:,1) ( m - cartesian, degrees - spherical ) */
(PID.TID 0000.0001)    90 @  7.722306258078101E+04              /* I =  1: 90 */
(PID.TID 0000.0001)     ;
(PID.TID 0000.0001) dxG =  /* dxG(1,:,1,:) ( m - cartesian, degrees - spherical ) */
(PID.TID 0000.0001)                 7.722306258078101E+04,      /* J =  1 */
(PID.TID 0000.0001)                 1.075850604052271E+05,      /* J =  2 */
(PID.TID 0000.0001)                 1.374229146297914E+05,      /* J =  3 */
(PID.TID 0000.0001)                 1.665912582279823E+05,      /* J =  4 */
(PID.TID 0000.0001)                 1.949479859617814E+05,      /* J =  5 */
(PID.TID 0000.0001)                 2.223549467040777E+05,      /* J =  6 */
(PID.TID 0000.0001)                 2.486786164970726E+05,      /* J =  7 */
(PID.TID 0000.0001)                 2.737907490675810E+05,      /* J =  8 */
(PID.TID 0000.0001)                 2.975690006299821E+05,      /* J =  9 */
(PID.TID 0000.0001)                 3.198975259328452E+05,      /* J = 10 */
(PID.TID 0000.0001)                 3.406675426453503E+05,      /* J = 11 */
(PID.TID 0000.0001)                 3.597778613338690E+05,      /* J = 12 */
(PID.TID 0000.0001)                 3.771353784467131E+05,      /* J = 13 */
(PID.TID 0000.0001)                 3.926555299052806E+05,      /* J = 14 */
(PID.TID 0000.0001)                 4.062627030917454E+05,      /* J = 15 */
(PID.TID 0000.0001)                 4.178906052261313E+05,      /* J = 16 */
(PID.TID 0000.0001)                 4.274825863380723E+05,      /* J = 17 */
(PID.TID 0000.0001)                 4.349919152597734E+05,      /* J = 18 */
(PID.TID 0000.0001)                 4.403820072955634E+05,      /* J = 19 */
(PID.TID 0000.0001)                 4.436266024588540E+05,      /* J = 20 */
(PID.TID 0000.0001)                 4.447098934081552E+05,      /* J = 21 */
(PID.TID 0000.0001)                 4.436266024588540E+05,      /* J = 22 */
(PID.TID 0000.0001)                 4.403820072955634E+05,      /* J = 23 */
(PID.TID 0000.0001)                 4.349919152597734E+05,      /* J = 24 */
(PID.TID 0000.0001)                 4.274825863380723E+05,      /* J = 25 */
(PID.TID 0000.0001)                 4.178906052261313E+05,      /* J = 26 */
(PID.TID 0000.0001)                 4.062627030917454E+05,      /* J = 27 */
(PID.TID 0000.0001)                 3.926555299052806E+05,      /* J = 28 */
(PID.TID 0000.0001)                 3.771353784467131E+05,      /* J = 29 */
(PID.TID 0000.0001)                 3.597778613338690E+05,      /* J = 30 */
(PID.TID 0000.0001)                 3.406675426453503E+05,      /* J = 31 */
(PID.TID 0000.0001)                 3.198975259328452E+05,      /* J = 32 */
(PID.TID 0000.0001)                 2.975690006299821E+05,      /* J = 33 */
(PID.TID 0000.0001)                 2.737907490675810E+05,      /* J = 34 */
(PID.TID 0000.0001)                 2.486786164970726E+05,      /* J = 35 */
(PID.TID 0000.0001)                 2.223549467040777E+05,      /* J = 36 */
(PID.TID 0000.0001)                 1.949479859617814E+05,      /* J = 37 */
(PID.TID 0000.0001)                 1.665912582279823E+05,      /* J = 38 */
(PID.TID 0000.0001)                 1.374229146297914E+05,      /* J = 39 */
(PID.TID 0000.0001)                 1.075850604052271E+05       /* J = 40 */
(PID.TID 0000.0001)     ;
(PID.TID 0000.0001) dyG =  /* dyG(:,1,:,1) ( m - cartesian, degrees - spherical ) */
(PID.TID 0000.0001)    90 @  4.447098934081552E+05              /* I =  1: 90 */
(PID.TID 0000.0001)     ;
(PID.TID 0000.0001) dyG =  /* dyG(1,:,1,:) ( m - cartesian, degrees - spherical ) */
(PID.TID 0000.0001)    40 @  4.447098934081552E+05              /* J =  1: 40 */
(PID.TID 0000.0001)     ;
(PID.TID 0000.0001) dxC =  /* dxC(:,1,:,1) ( m - cartesian, degrees - spherical ) */
(PID.TID 0000.0001)    90 @  9.246038586187513E+04              /* I =  1: 90 */
(PID.TID 0000.0001)     ;
(PID.TID 0000.0001) dxC =  /* dxC(1,:,1,:) ( m - cartesian, degrees - spherical ) */
(PID.TID 0000.0001)                 9.246038586187513E+04,      /* J =  1 */
(PID.TID 0000.0001)                 1.225786591246834E+05,      /* J =  2 */
(PID.TID 0000.0001)                 1.520997414818001E+05,      /* J =  3 */
(PID.TID 0000.0001)                 1.808798091874300E+05,      /* J =  4 */
(PID.TID 0000.0001)                 2.087786486446736E+05,      /* J =  5 */
(PID.TID 0000.0001)                 2.356603395120765E+05,      /* J =  6 */
(PID.TID 0000.0001)                 2.613939168938713E+05,      /* J =  7 */
(PID.TID 0000.0001)                 2.858540093877838E+05,      /* J =  8 */
(PID.TID 0000.0001)                 3.089214498819034E+05,      /* J =  9 */
(PID.TID 0000.0001)                 3.304838561248741E+05,      /* J = 10 */
(PID.TID 0000.0001)                 3.504361782409254E+05,      /* J = 11 */
(PID.TID 0000.0001)                 3.686812105223082E+05,      /* J = 12 */
(PID.TID 0000.0001)                 3.851300650057323E+05,      /* J = 13 */
(PID.TID 0000.0001)                 3.997026045255871E+05,      /* J = 14 */
(PID.TID 0000.0001)                 4.123278331341585E+05,      /* J = 15 */
(PID.TID 0000.0001)                 4.229442419867491E+05,      /* J = 16 */
(PID.TID 0000.0001)                 4.315001090065870E+05,      /* J = 17 */
(PID.TID 0000.0001)                 4.379537508695838E+05,      /* J = 18 */
(PID.TID 0000.0001)                 4.422737260813012E+05,      /* J = 19 */
(PID.TID 0000.0001)     2 @  4.444389881567502E+05,             /* J = 20: 21 */
(PID.TID 0000.0001)                 4.422737260813012E+05,      /* J = 22 */
(PID.TID 0000.0001)                 4.379537508695838E+05,      /* J = 23 */
(PID.TID 0000.0001)                 4.315001090065870E+05,      /* J = 24 */
(PID.TID 0000.0001)                 4.229442419867491E+05,      /* J = 25 */
(PID.TID 0000.0001)                 4.123278331341585E+05,      /* J = 26 */
(PID.TID 0000.0001)                 3.997026045255871E+05,      /* J = 27 */
(PID.TID 0000.0001)                 3.851300650057323E+05,      /* J = 28 */
(PID.TID 0000.0001)                 3.686812105223082E+05,      /* J = 29 */
(PID.TID 0000.0001)                 3.504361782409254E+05,      /* J = 30 */
(PID.TID 0000.0001)                 3.304838561248741E+05,      /* J = 31 */
(PID.TID 0000.0001)                 3.089214498819034E+05,      /* J = 32 */
(PID.TID 0000.0001)                 2.858540093877838E+05,      /* J = 33 */
(PID.TID 0000.0001)                 2.613939168938713E+05,      /* J = 34 */
(PID.TID 0000.0001)                 2.356603395120765E+05,      /* J = 35 */
[...]
(PID.TID 0000.0001) %MON vort_p_mean                  =  -2.1757776080170E-05
(PID.TID 0000.0001) %MON vort_p_sd                    =   9.9827470832827E-05
(PID.TID 0000.0001) %MON surfExpan_theta_mean         =   1.8913288855032E-05
(PID.TID 0000.0001) %MON surfExpan_salt_mean          =   1.9205645322610E-06
(PID.TID 0000.0001) // =======================================================
(PID.TID 0000.0001) // End MONITOR dynamic field statistics
(PID.TID 0000.0001) // =======================================================
 cg2d: Sum(rhs),rhsMax =   3.80140363631654E-13  8.53982590734813E+00
(PID.TID 0000.0001)                    cg2d_init_res =    6.99279095335668E-01
(PID.TID 0000.0001)                       cg2d_iters =    39
(PID.TID 0000.0001)                         cg2d_res =    4.89562011673334E-14
(PID.TID 0000.0001) // =======================================================
(PID.TID 0000.0001) // Begin MONITOR dynamic field statistics
(PID.TID 0000.0001) // =======================================================
(PID.TID 0000.0001) %MON time_tsnumber                =                    25
(PID.TID 0000.0001) %MON time_secondsf                =   2.7000000000000E+06
(PID.TID 0000.0001) %MON dynstat_eta_max              =   1.1662488047390E+00
(PID.TID 0000.0001) %MON dynstat_eta_min              =  -2.0995908673860E+00
(PID.TID 0000.0001) %MON dynstat_eta_mean             =  -5.3965070743018E-16
(PID.TID 0000.0001) %MON dynstat_eta_sd               =   5.7644293492285E-01
(PID.TID 0000.0001) %MON dynstat_eta_del2             =   2.5656654156653E-02
(PID.TID 0000.0001) %MON dynstat_uvel_max             =   2.4446717309182E-01
(PID.TID 0000.0001) %MON dynstat_uvel_min             =  -4.3545181637573E-01
(PID.TID 0000.0001) %MON dynstat_uvel_mean            =  -3.5634428621769E-03
(PID.TID 0000.0001) %MON dynstat_uvel_sd              =   2.0675164283664E-02
(PID.TID 0000.0001) %MON dynstat_uvel_del2            =   3.3871228238193E-03
(PID.TID 0000.0001) %MON dynstat_vvel_max             =   3.7511606162919E-01
(PID.TID 0000.0001) %MON dynstat_vvel_min             =  -5.1688236873416E-01
(PID.TID 0000.0001) %MON dynstat_vvel_mean            =  -4.9205544556459E-05
(PID.TID 0000.0001) %MON dynstat_vvel_sd              =   2.0004140669574E-02
(PID.TID 0000.0001) %MON dynstat_vvel_del2            =   4.0697505405507E-03
(PID.TID 0000.0001) %MON dynstat_wvel_max             =   1.1763480095865E-03
(PID.TID 0000.0001) %MON dynstat_wvel_min             =  -6.3170646996773E-04
(PID.TID 0000.0001) %MON dynstat_wvel_mean            =   2.7503219990973E-22
(PID.TID 0000.0001) %MON dynstat_wvel_sd              =   5.0186386675679E-05
(PID.TID 0000.0001) %MON dynstat_wvel_del2            =   1.0157698769647E-05
(PID.TID 0000.0001) %MON dynstat_theta_max            =   3.0057105110052E+01
(PID.TID 0000.0001) %MON dynstat_theta_min            =  -3.5526776725557E+00
(PID.TID 0000.0001) %MON dynstat_theta_mean           =   3.3991501129898E+00
(PID.TID 0000.0001) %MON dynstat_theta_sd             =   4.1448561799785E+00
(PID.TID 0000.0001) %MON dynstat_theta_del2           =   1.4777874693823E-01
(PID.TID 0000.0001) %MON dynstat_salt_max             =   3.7410419246920E+01
(PID.TID 0000.0001) %MON dynstat_salt_min             =   3.1048504058094E+01
(PID.TID 0000.0001) %MON dynstat_salt_mean            =   3.4715592348944E+01
(PID.TID 0000.0001) %MON dynstat_salt_sd              =   2.8020339323074E-01
(PID.TID 0000.0001) %MON dynstat_salt_del2            =   2.5395921423961E-02
(PID.TID 0000.0001) %MON advcfl_uvel_max              =   1.0633413968600E-01
(PID.TID 0000.0001) %MON advcfl_vvel_max              =   1.2552744306063E-01
(PID.TID 0000.0001) %MON advcfl_wvel_max              =   5.1673299194771E-01
(PID.TID 0000.0001) %MON advcfl_W_hf_max              =   5.9161204567182E-01
(PID.TID 0000.0001) %MON pe_b_mean                    =   3.7558490907894E-04
(PID.TID 0000.0001) %MON ke_max                       =   7.6081193412888E-02
(PID.TID 0000.0001) %MON ke_mean                      =   3.8230830462213E-04
(PID.TID 0000.0001) %MON ke_vol                       =   1.4474490094807E+18
(PID.TID 0000.0001) %MON vort_r_min                   =  -1.2666740340514E-06
(PID.TID 0000.0001) %MON vort_r_max                   =   1.3520174630853E-06
(PID.TID 0000.0001) %MON vort_a_mean                  =  -1.8569334076122E-05
(PID.TID 0000.0001) %MON vort_a_sd                    =   7.3617173416505E-05
(PID.TID 0000.0001) %MON vort_p_mean                  =  -2.1757776080170E-05
(PID.TID 0000.0001) %MON vort_p_sd                    =   9.9827599729614E-05
(PID.TID 0000.0001) %MON surfExpan_theta_mean         =   1.5378538500228E-05
(PID.TID 0000.0001) %MON surfExpan_salt_mean          =   1.5983609121174E-06
(PID.TID 0000.0001) // =======================================================
(PID.TID 0000.0001) // End MONITOR dynamic field statistics
(PID.TID 0000.0001) // =======================================================
 cg2d: Sum(rhs),rhsMax =   2.34479102800833E-13  8.28140259113410E+00
(PID.TID 0000.0001)                    cg2d_init_res =    7.00866141795472E-01
(PID.TID 0000.0001)                       cg2d_iters =    39
(PID.TID 0000.0001)                         cg2d_res =    4.95741856603838E-14
(PID.TID 0000.0001) // =======================================================
(PID.TID 0000.0001) // Begin MONITOR dynamic field statistics
(PID.TID 0000.0001) // =======================================================
(PID.TID 0000.0001) %MON time_tsnumber                =                    26
(PID.TID 0000.0001) %MON time_secondsf                =   2.8080000000000E+06
(PID.TID 0000.0001) %MON dynstat_eta_max              =   1.0692997728291E+00
(PID.TID 0000.0001) %MON dynstat_eta_min              =  -2.0873199308388E+00
(PID.TID 0000.0001) %MON dynstat_eta_mean             =  -5.1716526128726E-16
(PID.TID 0000.0001) %MON dynstat_eta_sd               =   5.7737406502546E-01
(PID.TID 0000.0001) %MON dynstat_eta_del2             =   2.5514800091684E-02
(PID.TID 0000.0001) %MON dynstat_uvel_max             =   2.4587308984053E-01
(PID.TID 0000.0001) %MON dynstat_uvel_min             =  -4.3505946553029E-01
(PID.TID 0000.0001) %MON dynstat_uvel_mean            =  -3.7222722756252E-03
(PID.TID 0000.0001) %MON dynstat_uvel_sd              =   2.0986049501671E-02
(PID.TID 0000.0001) %MON dynstat_uvel_del2            =   3.4694571037584E-03
(PID.TID 0000.0001) %MON dynstat_vvel_max             =   3.5129799249615E-01
(PID.TID 0000.0001) %MON dynstat_vvel_min             =  -5.2376981403976E-01
(PID.TID 0000.0001) %MON dynstat_vvel_mean            =  -8.9591634331190E-04
(PID.TID 0000.0001) %MON dynstat_vvel_sd              =   2.0503346413030E-02
(PID.TID 0000.0001) %MON dynstat_vvel_del2            =   4.1069430162352E-03
(PID.TID 0000.0001) %MON dynstat_wvel_max             =   1.1341242378708E-03
(PID.TID 0000.0001) %MON dynstat_wvel_min             =  -6.5308432295235E-04
(PID.TID 0000.0001) %MON dynstat_wvel_mean            =   5.0422569983450E-22
(PID.TID 0000.0001) %MON dynstat_wvel_sd              =   5.0244023357439E-05
(PID.TID 0000.0001) %MON dynstat_wvel_del2            =   9.9641318524833E-06
(PID.TID 0000.0001) %MON dynstat_theta_max            =   3.0468862997982E+01
(PID.TID 0000.0001) %MON dynstat_theta_min            =  -3.6205042582064E+00
(PID.TID 0000.0001) %MON dynstat_theta_mean           =   3.3989079838930E+00
(PID.TID 0000.0001) %MON dynstat_theta_sd             =   4.1437316345876E+00
(PID.TID 0000.0001) %MON dynstat_theta_del2           =   1.4720621701762E-01
(PID.TID 0000.0001) %MON dynstat_salt_max             =   3.7410449689352E+01
(PID.TID 0000.0001) %MON dynstat_salt_min             =   3.1074036746348E+01
(PID.TID 0000.0001) %MON dynstat_salt_mean            =   3.4715558639949E+01
(PID.TID 0000.0001) %MON dynstat_salt_sd              =   2.8022325670815E-01
(PID.TID 0000.0001) %MON dynstat_salt_del2            =   2.5307789175174E-02
(PID.TID 0000.0001) %MON advcfl_uvel_max              =   1.0623833048729E-01
(PID.TID 0000.0001) %MON advcfl_vvel_max              =   1.2720009326255E-01
(PID.TID 0000.0001) %MON advcfl_wvel_max              =   5.4790997011496E-01
(PID.TID 0000.0001) %MON advcfl_W_hf_max              =   6.3922829846745E-01
(PID.TID 0000.0001) %MON pe_b_mean                    =   3.7679925604846E-04
(PID.TID 0000.0001) %MON ke_max                       =   7.7651073690390E-02
(PID.TID 0000.0001) %MON ke_mean                      =   3.9826041804288E-04
(PID.TID 0000.0001) %MON ke_vol                       =   1.4474490094807E+18
(PID.TID 0000.0001) %MON vort_r_min                   =  -1.2617310549196E-06
(PID.TID 0000.0001) %MON vort_r_max                   =   1.3527245702732E-06
(PID.TID 0000.0001) %MON vort_a_mean                  =  -1.8569334076122E-05
(PID.TID 0000.0001) %MON vort_a_sd                    =   7.3617135604939E-05
(PID.TID 0000.0001) %MON vort_p_mean                  =  -2.1757776080170E-05
(PID.TID 0000.0001) %MON vort_p_sd                    =   9.9827754575152E-05
(PID.TID 0000.0001) %MON surfExpan_theta_mean         =   1.1803041421789E-05
(PID.TID 0000.0001) %MON surfExpan_salt_mean          =   1.3156894974345E-06
(PID.TID 0000.0001) // =======================================================
(PID.TID 0000.0001) // End MONITOR dynamic field statistics
(PID.TID 0000.0001) // =======================================================
(PID.TID 0000.0001) %CHECKPOINT        26 ckptA
(PID.TID 0000.0001)   Seconds in section "ALL                    [THE_MODEL_MAIN]":
(PID.TID 0000.0001)           User time:  17.2299998
(PID.TID 0000.0001)         System time:  0.439999998
(PID.TID 0000.0001)     Wall clock time:  20.2830629
(PID.TID 0000.0001)          No. starts: 1
(PID.TID 0000.0001)           No. stops: 1
(PID.TID 0000.0001)   Seconds in section "INITIALISE_FIXED       [THE_MODEL_MAIN]":
(PID.TID 0000.0001)           User time:  0.140000006
(PID.TID 0000.0001)         System time:  0.0299999993
(PID.TID 0000.0001)     Wall clock time:  0.246412992
(PID.TID 0000.0001)          No. starts: 1
(PID.TID 0000.0001)           No. stops: 1
(PID.TID 0000.0001)   Seconds in section "THE_MAIN_LOOP          [THE_MODEL_MAIN]":
(PID.TID 0000.0001)           User time:  16.9999996
(PID.TID 0000.0001)         System time:  0.289999994
(PID.TID 0000.0001)     Wall clock time:  18.0105391
(PID.TID 0000.0001)          No. starts: 1
(PID.TID 0000.0001)           No. stops: 1
(PID.TID 0000.0001)   Seconds in section "INITIALISE_VARIA    [THE_MAIN_LOOP]":
(PID.TID 0000.0001)           User time:  0.099999994
(PID.TID 0000.0001)         System time:  0.0200000014
(PID.TID 0000.0001)     Wall clock time:  0.165926933
(PID.TID 0000.0001)          No. starts: 1
(PID.TID 0000.0001)           No. stops: 1
(PID.TID 0000.0001)   Seconds in section "MONITOR             [THE_MAIN_LOOP]":
(PID.TID 0000.0001)           User time:  0.110000014
(PID.TID 0000.0001)         System time:  0.
(PID.TID 0000.0001)     Wall clock time:  0.11580801
(PID.TID 0000.0001)          No. starts: 1
(PID.TID 0000.0001)           No. stops: 1
(PID.TID 0000.0001)   Seconds in section "DO_THE_MODEL_IO     [THE_MAIN_LOOP]":
(PID.TID 0000.0001)           User time:  0.0199999809
(PID.TID 0000.0001)         System time:  0.0899999999
(PID.TID 0000.0001)     Wall clock time:  0.164653063
(PID.TID 0000.0001)          No. starts: 1
(PID.TID 0000.0001)           No. stops: 1
(PID.TID 0000.0001)   Seconds in section "MAIN LOOP           [THE_MAIN_LOOP]":
(PID.TID 0000.0001)           User time:  16.7699996
(PID.TID 0000.0001)         System time:  0.179999992
(PID.TID 0000.0001)     Wall clock time:  17.5639989
(PID.TID 0000.0001)          No. starts: 1
(PID.TID 0000.0001)           No. stops: 1
(PID.TID 0000.0001)   Seconds in section "FORWARD_STEP        [THE_MAIN_LOOP]":
(PID.TID 0000.0001)           User time:  16.7699996
(PID.TID 0000.0001)         System time:  0.179999992
(PID.TID 0000.0001)     Wall clock time:  17.5632203
(PID.TID 0000.0001)          No. starts: 26
(PID.TID 0000.0001)           No. stops: 26
(PID.TID 0000.0001)   Seconds in section "EXTERNAL_FIELDS_LOAD[FORWARD_STEP]":
(PID.TID 0000.0001)           User time:  0.
(PID.TID 0000.0001)         System time:  0.
(PID.TID 0000.0001)     Wall clock time:  0.000752687454
(PID.TID 0000.0001)          No. starts: 26
(PID.TID 0000.0001)           No. stops: 26
(PID.TID 0000.0001)   Seconds in section "DO_ATMOSPHERIC_PHYS [FORWARD_STEP]":
(PID.TID 0000.0001)           User time:  0.
(PID.TID 0000.0001)         System time:  0.
(PID.TID 0000.0001)     Wall clock time:  0.000749826431
(PID.TID 0000.0001)          No. starts: 26
(PID.TID 0000.0001)           No. stops: 26
(PID.TID 0000.0001)   Seconds in section "DO_OCEANIC_PHYS     [FORWARD_STEP]":
(PID.TID 0000.0001)           User time:  0.14000082
(PID.TID 0000.0001)         System time:  0.
(PID.TID 0000.0001)     Wall clock time:  0.143619061
(PID.TID 0000.0001)          No. starts: 26
(PID.TID 0000.0001)           No. stops: 26
(PID.TID 0000.0001)   Seconds in section "THERMODYNAMICS      [FORWARD_STEP]":
(PID.TID 0000.0001)           User time:  3.32000113
(PID.TID 0000.0001)         System time:  0.00999999046
(PID.TID 0000.0001)     Wall clock time:  3.37089443
(PID.TID 0000.0001)          No. starts: 26
(PID.TID 0000.0001)           No. stops: 26
(PID.TID 0000.0001)   Seconds in section "DYNAMICS            [FORWARD_STEP]":
(PID.TID 0000.0001)           User time:  7.12999934
(PID.TID 0000.0001)         System time:  0.0100000203
(PID.TID 0000.0001)     Wall clock time:  7.17682052
(PID.TID 0000.0001)          No. starts: 26
(PID.TID 0000.0001)           No. stops: 26
(PID.TID 0000.0001)   Seconds in section "SOLVE_FOR_PRESSURE  [FORWARD_STEP]":
(PID.TID 0000.0001)           User time:  1.8000012
(PID.TID 0000.0001)         System time:  0.0200000107
(PID.TID 0000.0001)     Wall clock time:  1.87520981
(PID.TID 0000.0001)          No. starts: 26
(PID.TID 0000.0001)           No. stops: 26
(PID.TID 0000.0001)   Seconds in section "UV_CORRECTION_STEP  [FORWARD_STEP]":
(PID.TID 0000.0001)           User time:  0.409998417
(PID.TID 0000.0001)         System time:  0.0100000054
(PID.TID 0000.0001)     Wall clock time:  0.423228502
(PID.TID 0000.0001)          No. starts: 26
(PID.TID 0000.0001)           No. stops: 26
(PID.TID 0000.0001)   Seconds in section "TS_CORRECTION_STEP  [FORWARD_STEP]":
(PID.TID 0000.0001)           User time:  0.730000138
(PID.TID 0000.0001)         System time:  0.
(PID.TID 0000.0001)     Wall clock time:  0.767135859
(PID.TID 0000.0001)          No. starts: 26
(PID.TID 0000.0001)           No. stops: 26
(PID.TID 0000.0001)   Seconds in section "BLOCKING_EXCHANGES  [FORWARD_STEP]":
(PID.TID 0000.0001)           User time:  0.210002005
(PID.TID 0000.0001)         System time:  0.
(PID.TID 0000.0001)     Wall clock time:  0.234942913
(PID.TID 0000.0001)          No. starts: 26
(PID.TID 0000.0001)           No. stops: 26
(PID.TID 0000.0001)   Seconds in section "DO_STATEVARS_DIAGS  [FORWARD_STEP]":
(PID.TID 0000.0001)           User time:  0.
(PID.TID 0000.0001)         System time:  0.
(PID.TID 0000.0001)     Wall clock time:  0.000768184662
(PID.TID 0000.0001)          No. starts: 26
(PID.TID 0000.0001)           No. stops: 26
(PID.TID 0000.0001)   Seconds in section "MONITOR             [FORWARD_STEP]":
(PID.TID 0000.0001)           User time:  2.94999808
(PID.TID 0000.0001)         System time:  0.00999999046
(PID.TID 0000.0001)     Wall clock time:  3.00413513
(PID.TID 0000.0001)          No. starts: 26
(PID.TID 0000.0001)           No. stops: 26
(PID.TID 0000.0001)   Seconds in section "DO_THE_MODEL_IO     [FORWARD_STEP]":
(PID.TID 0000.0001)           User time:  0.0699987411
(PID.TID 0000.0001)         System time:  0.119999975
(PID.TID 0000.0001)     Wall clock time:  0.553340435
(PID.TID 0000.0001)          No. starts: 26
(PID.TID 0000.0001)           No. stops: 26
(PID.TID 0000.0001)   Seconds in section "WRITE_CHECKPOINT    [FORWARD_STEP]":
(PID.TID 0000.0001)           User time:  0.
(PID.TID 0000.0001)         System time:  0.
(PID.TID 0000.0001)     Wall clock time:  0.000767707825
(PID.TID 0000.0001)          No. starts: 26
(PID.TID 0000.0001)           No. stops: 26
(PID.TID 0000.0001)   Seconds in section "WRITE_CHECKPOINT       [THE_MODEL_MAIN]":
(PID.TID 0000.0001)           User time:  0.0900001526
(PID.TID 0000.0001)         System time:  0.120000005
(PID.TID 0000.0001)     Wall clock time:  2.0259738
(PID.TID 0000.0001)          No. starts: 1
(PID.TID 0000.0001)           No. stops: 1
(PID.TID 0000.0001) // ======================================================
(PID.TID 0000.0001) // Tile <-> Tile communication statistics
(PID.TID 0000.0001) // ======================================================
(PID.TID 0000.0001) // o Tile number: 000001
(PID.TID 0000.0001) //         No. X exchanges =              0
(PID.TID 0000.0001) //            Max. X spins =              0
(PID.TID 0000.0001) //            Min. X spins =     1000000000
(PID.TID 0000.0001) //          Total. X spins =              0
(PID.TID 0000.0001) //            Avg. X spins =       0.00E+00
(PID.TID 0000.0001) //         No. Y exchanges =              0
(PID.TID 0000.0001) //            Max. Y spins =              0
(PID.TID 0000.0001) //            Min. Y spins =     1000000000
(PID.TID 0000.0001) //          Total. Y spins =              0
(PID.TID 0000.0001) //            Avg. Y spins =       0.00E+00
(PID.TID 0000.0001) // o Tile number: 000002
(PID.TID 0000.0001) //         No. X exchanges =              0
(PID.TID 0000.0001) //            Max. X spins =              0
(PID.TID 0000.0001) //            Min. X spins =     1000000000
(PID.TID 0000.0001) //          Total. X spins =              0
(PID.TID 0000.0001) //            Avg. X spins =       0.00E+00
(PID.TID 0000.0001) //         No. Y exchanges =              0
(PID.TID 0000.0001) //            Max. Y spins =              0
(PID.TID 0000.0001) //            Min. Y spins =     1000000000
(PID.TID 0000.0001) //          Total. Y spins =              0
(PID.TID 0000.0001) //            Avg. Y spins =       0.00E+00
(PID.TID 0000.0001) // o Tile number: 000003
(PID.TID 0000.0001) //         No. X exchanges =              0
(PID.TID 0000.0001) //            Max. X spins =              0
(PID.TID 0000.0001) //            Min. X spins =     1000000000
(PID.TID 0000.0001) //          Total. X spins =              0
(PID.TID 0000.0001) //            Avg. X spins =       0.00E+00
(PID.TID 0000.0001) //         No. Y exchanges =              0
(PID.TID 0000.0001) //            Max. Y spins =              0
(PID.TID 0000.0001) //            Min. Y spins =     1000000000
(PID.TID 0000.0001) //          Total. Y spins =              0
(PID.TID 0000.0001) //            Avg. Y spins =       0.00E+00
(PID.TID 0000.0001) // o Tile number: 000004
(PID.TID 0000.0001) //         No. X exchanges =              0
(PID.TID 0000.0001) //            Max. X spins =              0
(PID.TID 0000.0001) //            Min. X spins =     1000000000
(PID.TID 0000.0001) //          Total. X spins =              0
(PID.TID 0000.0001) //            Avg. X spins =       0.00E+00
(PID.TID 0000.0001) //         No. Y exchanges =              0
(PID.TID 0000.0001) //            Max. Y spins =              0
(PID.TID 0000.0001) //            Min. Y spins =     1000000000
(PID.TID 0000.0001) //          Total. Y spins =              0
(PID.TID 0000.0001) //            Avg. Y spins =       0.00E+00
(PID.TID 0000.0001) // o Thread number: 000001
(PID.TID 0000.0001) //            No. barriers =          20798
(PID.TID 0000.0001) //      Max. barrier spins =              1
(PID.TID 0000.0001) //      Min. barrier spins =              1
(PID.TID 0000.0001) //     Total barrier spins =          20798
(PID.TID 0000.0001) //      Avg. barrier spins =       1.00E+00
