(PID.TID 0000.0001) 
(PID.TID 0000.0001) // ======================================================
(PID.TID 0000.0001) //                      MITgcm UV
(PID.TID 0000.0001) //                      =========
(PID.TID 0000.0001) // ======================================================
(PID.TID 0000.0001) // execution environment starting up...
(PID.TID 0000.0001) // Run starting Wed Apr  1 14:19:48 1998
(PID.TID 0000.0001) // on melville.lcs.mit.edu
(PID.TID 0000.0001) // account cnh
(PID.TID 0000.0001) // MITgcm UV Release: $Name:  $
(PID.TID 0000.0001) 
(PID.TID 0000.0001) // =======================================================
(PID.TID 0000.0001) // Execution Environment parameter file "eedata"
(PID.TID 0000.0001) // =======================================================
(PID.TID 0000.0001) ># Example "eedata" file
(PID.TID 0000.0001) ># Lines beginning "#" are comments
(PID.TID 0000.0001) ># nTx - No. threads per process in X
(PID.TID 0000.0001) ># nTy - No. threads per process in Y
(PID.TID 0000.0001) > &EEPARMS
(PID.TID 0000.0001) > &
(PID.TID 0000.0001) ># Note: Some systems use & as the
(PID.TID 0000.0001) ># namelist terminator. Other systems
(PID.TID 0000.0001) ># use a / character (as shown here).
(PID.TID 0000.0001) 
(PID.TID 0000.0001) // =======================================================
(PID.TID 0000.0001) // Computational Grid Specification ( see files "SIZE.h" )
(PID.TID 0000.0001) //                                  ( and "eedata"       )
(PID.TID 0000.0001) // =======================================================
(PID.TID 0000.0001)      nPx =    1 ; /* No. processes in X */
(PID.TID 0000.0001)      nPy =    1 ; /* No. processes in Y */
(PID.TID 0000.0001)      nSx =    1 ; /* No. tiles in X per process */
(PID.TID 0000.0001)      nSy =    1 ; /* No. tiles in Y per process */
(PID.TID 0000.0001)      sNx =  320 ; /* Tile size in X */
(PID.TID 0000.0001)      sNy =    1 ; /* Tile size in Y */
(PID.TID 0000.0001)      OLx =    3 ; /* Tile overlap distance in X */
(PID.TID 0000.0001)      OLy =    3 ; /* Tile overlap distance in Y */
(PID.TID 0000.0001)      nTx =    1 ; /* No. threads in X per process */
(PID.TID 0000.0001)      nTy =    1 ; /* No. threads in Y per process */
(PID.TID 0000.0001)       Nr =   60 ; /* No. levels in the vertical   */
(PID.TID 0000.0001)       nX =  320 ; /* Total domain size in X ( = nPx*nSx*sNx ) */
(PID.TID 0000.0001)       nY =    1 ; /* Total domain size in Y ( = nPy*nSy*sNy ) */
(PID.TID 0000.0001)   nTiles =    1 ; /* Total no. tiles per process ( = nSx*nSy ) */
(PID.TID 0000.0001)   nProcs =    1 ; /* Total no. processes ( = nPx*nPy ) */
(PID.TID 0000.0001) nThreads =    1 ; /* Total no. threads per process ( = nTx*nTy ) */
(PID.TID 0000.0001) usingMPI =    F ; /* Flag used to control whether MPI is in use */
(PID.TID 0000.0001)                   /*  note: To execute a program with MPI calls */
(PID.TID 0000.0001)                   /*  it must be launched appropriately e.g     */
(PID.TID 0000.0001)                   /*  "mpirun -np 64 ......"                    */
(PID.TID 0000.0001) 
(PID.TID 0000.0001) // ======================================================
(PID.TID 0000.0001) // Mapping of tiles to threads
(PID.TID 0000.0001) // ======================================================
(PID.TID 0000.0001) // -o- Thread   1, tiles (   1:   1,   1:   1)
(PID.TID 0000.0001) 
(PID.TID 0000.0001) // ======================================================
(PID.TID 0000.0001) // Tile <-> Tile connectvity table
(PID.TID 0000.0001) // ======================================================
(PID.TID 0000.0001) // Tile number: 000001 (process no. = 000001)
(PID.TID 0000.0001) //        WEST: Tile = 000001, Process = 000001, Comm = put
(PID.TID 0000.0001) //                bi = 000001, bj = 000001
(PID.TID 0000.0001) //        EAST: Tile = 000001, Process = 000001, Comm = put
(PID.TID 0000.0001) //                bi = 000001, bj = 000001
(PID.TID 0000.0001) //       SOUTH: Tile = 000001, Process = 000001, Comm = put
(PID.TID 0000.0001) //                bi = 000001, bj = 000001
(PID.TID 0000.0001) //       NORTH: Tile = 000001, Process = 000001, Comm = put
(PID.TID 0000.0001) //                bi = 000001, bj = 000001
(PID.TID 0000.0001) 
(PID.TID 0000.0001) // =======================================================
(PID.TID 0000.0001) // Model parameter file "data"
(PID.TID 0000.0001) // =======================================================
(PID.TID 0000.0001) ># ====================
(PID.TID 0000.0001) ># | Model parameters |
(PID.TID 0000.0001) ># ====================
(PID.TID 0000.0001) >#
(PID.TID 0000.0001) ># Continuous equation parameters
(PID.TID 0000.0001) > &PARM01
(PID.TID 0000.0001) > tRef=60*1.,
(PID.TID 0000.0001) > sRef=60*35.,
(PID.TID 0000.0001) > viscA4=0.0E4,
(PID.TID 0000.0001) > viscAh=1.E-2,
(PID.TID 0000.0001) > viscAz=1.E-3,
(PID.TID 0000.0001) > no_slip_sides=.TRUE.,
(PID.TID 0000.0001) > no_slip_bottom=.TRUE.,
(PID.TID 0000.0001) > diffK4T=0.E4,
(PID.TID 0000.0001) > diffKhT=0.E-2,
(PID.TID 0000.0001) > diffKzT=0.E-3,
(PID.TID 0000.0001) > diffK4S=0.E4,
(PID.TID 0000.0001) > diffKhS=1.E-2,
(PID.TID 0000.0001) > diffKzS=1.E-5,
(PID.TID 0000.0001) > f0=0.e-4,
(PID.TID 0000.0001) > beta=0.E-11,
(PID.TID 0000.0001) > tAlpha=2.E-4,
(PID.TID 0000.0001) > sBeta =0.E-4,
(PID.TID 0000.0001) > rigidLid=.FALSE.,
(PID.TID 0000.0001) > implicitFreeSurface=.TRUE.,
(PID.TID 0000.0001) > eosType='LINEAR',
(PID.TID 0000.0001) > hFacMin=0.05,
(PID.TID 0000.0001) > nonHydrostatic=.TRUE.,
(PID.TID 0000.0001) > readBinaryPrec=64,
(PID.TID 0000.0001) > globalFiles=.TRUE.,
(PID.TID 0000.0001) > bottomDragLinear=0.E-4,
(PID.TID 0000.0001) > tempAdvScheme=33,
(PID.TID 0000.0001) > &
(PID.TID 0000.0001) >
(PID.TID 0000.0001) ># Elliptic solver parameters
(PID.TID 0000.0001) > &PARM02
(PID.TID 0000.0001) > cg2dMaxIters=300,
(PID.TID 0000.0001) > cg2dTargetResidual=1.E-13,
(PID.TID 0000.0001) > cg3dMaxIters=20,
(PID.TID 0000.0001) > cg3dTargetResidual=1.E-8,
(PID.TID 0000.0001) > &
(PID.TID 0000.0001) >
(PID.TID 0000.0001) ># Time stepping parameters
(PID.TID 0000.0001) > &PARM03
(PID.TID 0000.0001) > niter0=0,
(PID.TID 0000.0001) > nTimeSteps=20,
(PID.TID 0000.0001) >#nTimeSteps=8640,
(PID.TID 0000.0001) > deltaT=20.0,
(PID.TID 0000.0001) > abEps=0.01,
(PID.TID 0000.0001) > pChkptFreq=0.0,
(PID.TID 0000.0001) > chkptFreq=0.0,
(PID.TID 0000.0001) > dumpFreq=6000.0,
(PID.TID 0000.0001) >#taveFreq=864000.0,
(PID.TID 0000.0001) > monitorFreq=1.,
(PID.TID 0000.0001) > &
(PID.TID 0000.0001) >
(PID.TID 0000.0001) ># Gridding parameters
(PID.TID 0000.0001) > &PARM04
(PID.TID 0000.0001) > usingCartesianGrid=.TRUE.,
(PID.TID 0000.0001) > usingSphericalPolarGrid=.FALSE.,
(PID.TID 0000.0001) > delXfile='dx.bin',
(PID.TID 0000.0001) > dYspacing=200.,
(PID.TID 0000.0001) > delZ=60*3.33333333333333333333333,
(PID.TID 0000.0001) > &
(PID.TID 0000.0001) >
(PID.TID 0000.0001) ># Input datasets
(PID.TID 0000.0001) > &PARM05
(PID.TID 0000.0001) > bathyFile='topog.slope',
(PID.TID 0000.0001) > hydrogThetaFile='T.init',
(PID.TID 0000.0001) > surfQfile='Qnet.forcing',
(PID.TID 0000.0001) >#hydrogThetaFile='T.pickup',
(PID.TID 0000.0001) >#uVelInitFile='U.pickup',
(PID.TID 0000.0001) >#pSurfInitFile='Eta.pickup',
(PID.TID 0000.0001) > &
(PID.TID 0000.0001) 
(PID.TID 0000.0001) S/R INI_PARMS ; read PARM01 : OK
(PID.TID 0000.0001) S/R INI_PARMS ; read PARM02 : OK
(PID.TID 0000.0001) S/R INI_PARMS ; read PARM03 : OK
(PID.TID 0000.0001) S/R INI_PARMS ; read PARM04 : OK
(PID.TID 0000.0001) S/R INI_PARMS ; read PARM05 : OK
(PID.TID 0000.0001) %MON XC_max                       =   6.4030118978311E+03
(PID.TID 0000.0001) %MON XC_min                       =   6.6667527892151E+00
(PID.TID 0000.0001) %MON XC_mean                      =   2.4575819181463E+03
(PID.TID 0000.0001) %MON XC_sd                        =   1.7058938715763E+03
(PID.TID 0000.0001) %MON XG_max                       =   6.3832517139640E+03
(PID.TID 0000.0001) %MON XG_min                       =   1.3333505578430E+01
(PID.TID 0000.0001) %MON XG_mean                      =   2.4552188958181E+03
(PID.TID 0000.0001) %MON XG_sd                        =   1.6985888696894E+03
(PID.TID 0000.0001) %MON DXC_max                      =   3.9508304374678E+01
(PID.TID 0000.0001) %MON DXC_min                      =   1.3333509993998E+01
(PID.TID 0000.0001) %MON DXC_mean                     =   2.0071162755307E+01
(PID.TID 0000.0001) %MON DXC_sd                       =   9.4906528979627E+00
(PID.TID 0000.0001) %MON DXF_max                      =   3.9520367734344E+01
(PID.TID 0000.0001) %MON DXF_min                      =   1.3333505578430E+01
(PID.TID 0000.0001) %MON DXF_mean                     =   2.0071162755307E+01
(PID.TID 0000.0001) %MON DXF_sd                       =   9.5190787885357E+00
(PID.TID 0000.0001) %MON DXG_max                      =   3.9520367734344E+01
(PID.TID 0000.0001) %MON DXG_min                      =   1.3333505578430E+01
(PID.TID 0000.0001) %MON DXG_mean                     =   2.0071162755307E+01
(PID.TID 0000.0001) %MON DXG_sd                       =   9.5190787885357E+00
(PID.TID 0000.0001) %MON DXV_max                      =   3.9508304374678E+01
(PID.TID 0000.0001) %MON DXV_min                      =   1.3333509993998E+01
(PID.TID 0000.0001) %MON DXV_mean                     =   2.0071162755307E+01
(PID.TID 0000.0001) %MON DXV_sd                       =   9.4906528979627E+00
(PID.TID 0000.0001) %MON YC_max                       =   1.0000000000000E+02
(PID.TID 0000.0001) %MON YC_min                       =   1.0000000000000E+02
(PID.TID 0000.0001) %MON YC_mean                      =   1.0000000000000E+02
(PID.TID 0000.0001) %MON YC_sd                        =   0.0000000000000E+00
(PID.TID 0000.0001) %MON YG_max                       =   0.0000000000000E+00
(PID.TID 0000.0001) %MON YG_min                       =   0.0000000000000E+00
(PID.TID 0000.0001) %MON YG_mean                      =   0.0000000000000E+00
(PID.TID 0000.0001) %MON YG_sd                        =   0.0000000000000E+00
(PID.TID 0000.0001) %MON DYC_max                      =   2.0000000000000E+02
(PID.TID 0000.0001) %MON DYC_min                      =   2.0000000000000E+02
(PID.TID 0000.0001) %MON DYC_mean                     =   2.0000000000000E+02
(PID.TID 0000.0001) %MON DYC_sd                       =   0.0000000000000E+00
(PID.TID 0000.0001) %MON DYF_max                      =   2.0000000000000E+02
(PID.TID 0000.0001) %MON DYF_min                      =   2.0000000000000E+02
(PID.TID 0000.0001) %MON DYF_mean                     =   2.0000000000000E+02
(PID.TID 0000.0001) %MON DYF_sd                       =   0.0000000000000E+00
(PID.TID 0000.0001) %MON DYG_max                      =   2.0000000000000E+02
(PID.TID 0000.0001) %MON DYG_min                      =   2.0000000000000E+02
(PID.TID 0000.0001) %MON DYG_mean                     =   2.0000000000000E+02
(PID.TID 0000.0001) %MON DYG_sd                       =   0.0000000000000E+00
(PID.TID 0000.0001) %MON DYU_max                      =   2.0000000000000E+02
(PID.TID 0000.0001) %MON DYU_min                      =   2.0000000000000E+02
(PID.TID 0000.0001) %MON DYU_mean                     =   2.0000000000000E+02
(PID.TID 0000.0001) %MON DYU_sd                       =   0.0000000000000E+00
(PID.TID 0000.0001) %MON RA_max                       =   7.9040735468688E+03
(PID.TID 0000.0001) %MON RA_min                       =   2.6667011156861E+03
(PID.TID 0000.0001) %MON RA_mean                      =   4.0142325510614E+03
(PID.TID 0000.0001) %MON RA_sd                        =   1.9038157577071E+03
(PID.TID 0000.0001) %MON RAW_max                      =   7.9016608749357E+03
(PID.TID 0000.0001) %MON RAW_min                      =   2.6667019987996E+03
(PID.TID 0000.0001) %MON RAW_mean                     =   4.0142325510614E+03
(PID.TID 0000.0001) %MON RAW_sd                       =   1.8981305795925E+03
(PID.TID 0000.0001) %MON RAS_max                      =   7.9040735468688E+03
(PID.TID 0000.0001) %MON RAS_min                      =   2.6667011156861E+03
(PID.TID 0000.0001) %MON RAS_mean                     =   4.0142325510614E+03
(PID.TID 0000.0001) %MON RAS_sd                       =   1.9038157577071E+03
(PID.TID 0000.0001) %MON RAZ_max                      =   7.9016608749357E+03
(PID.TID 0000.0001) %MON RAZ_min                      =   2.6667019987996E+03
(PID.TID 0000.0001) %MON RAZ_mean                     =   4.0142325510614E+03
(PID.TID 0000.0001) %MON RAZ_sd                       =   1.8981305795925E+03
(PID.TID 0000.0001)  MDSREADFIELD: opening global file: topog.slope
(PID.TID 0000.0001) // =======================================================
(PID.TID 0000.0001) // Field Model R_low (ini_masks_etc) at iteration          1
(PID.TID 0000.0001) // CMIN =         -1.999999967446850E+02
(PID.TID 0000.0001) // CMAX =         -4.030068084778270E+01
(PID.TID 0000.0001) // CINT =          5.914789477663049E+00
(PID.TID 0000.0001) // SYMBOLS (CMIN->CMAX): -abcdefghijklmnopqrstuvwxyz+
(PID.TID 0000.0001) //                  0.0: .
(PID.TID 0000.0001) // RANGE I (Lo:Hi:Step):(  -2: 323:   1)
(PID.TID 0000.0001) // RANGE J (Lo:Hi:Step):(   4:  -2:  -1)
(PID.TID 0000.0001) // RANGE K (Lo:Hi:Step):(   1:   1:   1)
(PID.TID 0000.0001) // =======================================================
(PID.TID 0000.0001) K =   1
(PID.TID 0000.0001) //                I=7       I=17      I=27      I=37      I=47      I=57      I=67      I=77      I=87      I=97      I=107     I=117     I=127     I=137     I=147     I=157     I=167     I=177     I=187     I=197     I=207     I=217     I=227     I=237     I=247     I=257     I=267     I=277     I=287     I=297     I=307     I=317
(PID.TID 0000.0001) // |--J--|**0123456|890123456|890123456|890123456|890123456|890123456|890123456|890123456|890123456|890123456|890123456|890123456|890123456|890123456|890123456|890123456|890123456|890123456|890123456|890123456|890123456|890123456|890123456|890123456|890123456|890123456|890123456|890123456|890123456|890123456|890123456|890123456|890123
(PID.TID 0000.0001) //      4 ---.+++++++++++++++++++++++++++++++++++++++++++++++++zzzzzzzzzzzzzzzzzzzzzyyyyyyyyyyyxxxxxxxwwwwwwvvvvvuuuuttttsssrrrrqqqpppooonnnmmmlllkkkjjjiiihhhhggggffffeeeeedddddcccccccbbbbbbbbbbbaaaaaaaaaaaaaaaaaaa-----------------------------------------------------------------------------------------------------------------------.++
(PID.TID 0000.0001) //      3 ---.+++++++++++++++++++++++++++++++++++++++++++++++++zzzzzzzzzzzzzzzzzzzzzyyyyyyyyyyyxxxxxxxwwwwwwvvvvvuuuuttttsssrrrrqqqpppooonnnmmmlllkkkjjjiiihhhhggggffffeeeeedddddcccccccbbbbbbbbbbbaaaaaaaaaaaaaaaaaaa-----------------------------------------------------------------------------------------------------------------------.++
(PID.TID 0000.0001) //      2 ---.+++++++++++++++++++++++++++++++++++++++++++++++++zzzzzzzzzzzzzzzzzzzzzyyyyyyyyyyyxxxxxxxwwwwwwvvvvvuuuuttttsssrrrrqqqpppooonnnmmmlllkkkjjjiiihhhhggggffffeeeeedddddcccccccbbbbbbbbbbbaaaaaaaaaaaaaaaaaaa-----------------------------------------------------------------------------------------------------------------------.++
(PID.TID 0000.0001) //      1 ---.+++++++++++++++++++++++++++++++++++++++++++++++++zzzzzzzzzzzzzzzzzzzzzyyyyyyyyyyyxxxxxxxwwwwwwvvvvvuuuuttttsssrrrrqqqpppooonnnmmmlllkkkjjjiiihhhhggggffffeeeeedddddcccccccbbbbbbbbbbbaaaaaaaaaaaaaaaaaaa-----------------------------------------------------------------------------------------------------------------------.++
(PID.TID 0000.0001) //      0 ---.+++++++++++++++++++++++++++++++++++++++++++++++++zzzzzzzzzzzzzzzzzzzzzyyyyyyyyyyyxxxxxxxwwwwwwvvvvvuuuuttttsssrrrrqqqpppooonnnmmmlllkkkjjjiiihhhhggggffffeeeeedddddcccccccbbbbbbbbbbbaaaaaaaaaaaaaaaaaaa-----------------------------------------------------------------------------------------------------------------------.++
(PID.TID 0000.0001) //     -1 ---.+++++++++++++++++++++++++++++++++++++++++++++++++zzzzzzzzzzzzzzzzzzzzzyyyyyyyyyyyxxxxxxxwwwwwwvvvvvuuuuttttsssrrrrqqqpppooonnnmmmlllkkkjjjiiihhhhggggffffeeeeedddddcccccccbbbbbbbbbbbaaaaaaaaaaaaaaaaaaa-----------------------------------------------------------------------------------------------------------------------.++
(PID.TID 0000.0001) //     -2 ---.+++++++++++++++++++++++++++++++++++++++++++++++++zzzzzzzzzzzzzzzzzzzzzyyyyyyyyyyyxxxxxxxwwwwwwvvvvvuuuuttttsssrrrrqqqpppooonnnmmmlllkkkjjjiiihhhhggggffffeeeeedddddcccccccbbbbbbbbbbbaaaaaaaaaaaaaaaaaaa-----------------------------------------------------------------------------------------------------------------------.++
(PID.TID 0000.0001) // =======================================================
(PID.TID 0000.0001) // END OF FIELD                                          =
(PID.TID 0000.0001) // =======================================================
(PID.TID 0000.0001) 
(PID.TID 0000.0001) // =======================================================
(PID.TID 0000.0001) // Field Model Ro_surf (ini_masks_etc) at iteration          1
(PID.TID 0000.0001) // CMIN =         -1.332267629550188E-14
(PID.TID 0000.0001) // CMAX =          1.509903313490213E-14
(PID.TID 0000.0001) // CINT =          1.052655904829778E-15
(PID.TID 0000.0001) // SYMBOLS (CMIN->CMAX): -abcdefghijklmnopqrstuvwxyz+
(PID.TID 0000.0001) //                  0.0: .
(PID.TID 0000.0001) // RANGE I (Lo:Hi:Step):(  -2: 323:   1)
(PID.TID 0000.0001) // RANGE J (Lo:Hi:Step):(   4:  -2:  -1)
(PID.TID 0000.0001) // RANGE K (Lo:Hi:Step):(   1:   1:   1)
(PID.TID 0000.0001) // =======================================================
(PID.TID 0000.0001) K =   1
(PID.TID 0000.0001) //                I=7       I=17      I=27      I=37      I=47      I=57      I=67      I=77      I=87      I=97      I=107     I=117     I=127     I=137     I=147     I=157     I=167     I=177     I=187     I=197     I=207     I=217     I=227     I=237     I=247     I=257     I=267     I=277     I=287     I=297     I=307     I=317
(PID.TID 0000.0001) // |--J--|**0123456|890123456|890123456|890123456|890123456|890123456|890123456|890123456|890123456|890123456|890123456|890123456|890123456|890123456|890123456|890123456|890123456|890123456|890123456|890123456|890123456|890123456|890123456|890123456|890123456|890123456|890123456|890123456|890123456|890123456|890123456|890123456|890123
(PID.TID 0000.0001) //      4 ---.nnnnnnnnnnnnnnnnnnnnnnnnnnnnnnnnnnnnnnngggggggggggnnnnnnnnnggggnnnnnngggnnnnggnnnggnnggnnggnnn++n+nn+n+n+nnnnnnn+n+n+nnnn+n+nn+n+nn+----+-------------+----+--+--+-------+----+-----+-------++------------++++-----------------------------------------------------------------------------------------------------------------.nn
(PID.TID 0000.0001) //      3 ---.nnnnnnnnnnnnnnnnnnnnnnnnnnnnnnnnnnnnnnngggggggggggnnnnnnnnnggggnnnnnngggnnnnggnnnggnnggnnggnnn++n+nn+n+n+nnnnnnn+n+n+nnnn+n+nn+n+nn+----+-------------+----+--+--+-------+----+-----+-------++------------++++-----------------------------------------------------------------------------------------------------------------.nn
(PID.TID 0000.0001) //      2 ---.nnnnnnnnnnnnnnnnnnnnnnnnnnnnnnnnnnnnnnngggggggggggnnnnnnnnnggggnnnnnngggnnnnggnnnggnnggnnggnnn++n+nn+n+n+nnnnnnn+n+n+nnnn+n+nn+n+nn+----+-------------+----+--+--+-------+----+-----+-------++------------++++-----------------------------------------------------------------------------------------------------------------.nn
(PID.TID 0000.0001) //      1 ---.nnnnnnnnnnnnnnnnnnnnnnnnnnnnnnnnnnnnnnngggggggggggnnnnnnnnnggggnnnnnngggnnnnggnnnggnnggnnggnnn++n+nn+n+n+nnnnnnn+n+n+nnnn+n+nn+n+nn+----+-------------+----+--+--+-------+----+-----+-------++------------++++-----------------------------------------------------------------------------------------------------------------.nn
(PID.TID 0000.0001) //      0 ---.nnnnnnnnnnnnnnnnnnnnnnnnnnnnnnnnnnnnnnngggggggggggnnnnnnnnnggggnnnnnngggnnnnggnnnggnnggnnggnnn++n+nn+n+n+nnnnnnn+n+n+nnnn+n+nn+n+nn+----+-------------+----+--+--+-------+----+-----+-------++------------++++-----------------------------------------------------------------------------------------------------------------.nn
(PID.TID 0000.0001) //     -1 ---.nnnnnnnnnnnnnnnnnnnnnnnnnnnnnnnnnnnnnnngggggggggggnnnnnnnnnggggnnnnnngggnnnnggnnnggnnggnnggnnn++n+nn+n+n+nnnnnnn+n+n+nnnn+n+nn+n+nn+----+-------------+----+--+--+-------+----+-----+-------++------------++++-----------------------------------------------------------------------------------------------------------------.nn
(PID.TID 0000.0001) //     -2 ---.nnnnnnnnnnnnnnnnnnnnnnnnnnnnnnnnnnnnnnngggggggggggnnnnnnnnnggggnnnnnngggnnnnggnnnggnnggnnggnnn++n+nn+n+n+nnnnnnn+n+n+nnnn+n+nn+n+nn+----+-------------+----+--+--+-------+----+-----+-------++------------++++-----------------------------------------------------------------------------------------------------------------.nn
(PID.TID 0000.0001) // =======================================================
(PID.TID 0000.0001) // END OF FIELD                                          =
(PID.TID 0000.0001) // =======================================================
(PID.TID 0000.0001) 
(PID.TID 0000.0001) // =======================================================
(PID.TID 0000.0001) // Field hFacC at iteration          1
(PID.TID 0000.0001) // CMIN =          1.000000000000000E+00
(PID.TID 0000.0001) // CMAX =          1.000000000000000E+00
(PID.TID 0000.0001) // CINT =          0.000000000000000E+00
(PID.TID 0000.0001) // SYMBOLS (CMIN->CMAX): -abcdefghijklmnopqrstuvwxyz+
(PID.TID 0000.0001) //                  0.0: .
(PID.TID 0000.0001) // RANGE I (Lo:Hi:Step):(  -2: 323:   1)
(PID.TID 0000.0001) // RANGE J (Lo:Hi:Step):(   4:  -2:  -1)
(PID.TID 0000.0001) // RANGE K (Lo:Hi:Step):(   1:   1:   1)
(PID.TID 0000.0001) // =======================================================
(PID.TID 0000.0001) K =   1
(PID.TID 0000.0001) //                I=7       I=17      I=27      I=37      I=47      I=57      I=67      I=77      I=87      I=97      I=107     I=117     I=127     I=137     I=147     I=157     I=167     I=177     I=187     I=197     I=207     I=217     I=227     I=237     I=247     I=257     I=267     I=277     I=287     I=297     I=307     I=317
(PID.TID 0000.0001) // |--J--|**0123456|890123456|890123456|890123456|890123456|890123456|890123456|890123456|890123456|890123456|890123456|890123456|890123456|890123456|890123456|890123456|890123456|890123456|890123456|890123456|890123456|890123456|890123456|890123456|890123456|890123456|890123456|890123456|890123456|890123456|890123456|890123456|890123
(PID.TID 0000.0001) //      4 ---.-------------------------------------------------------------------------------------------------------------------------------------------------------------------------------------------------------------------------------------------------------------------------------------------------------------------------------.--
(PID.TID 0000.0001) //      3 ---.-------------------------------------------------------------------------------------------------------------------------------------------------------------------------------------------------------------------------------------------------------------------------------------------------------------------------------.--
(PID.TID 0000.0001) //      2 ---.-------------------------------------------------------------------------------------------------------------------------------------------------------------------------------------------------------------------------------------------------------------------------------------------------------------------------------.--
(PID.TID 0000.0001) //      1 ---.-------------------------------------------------------------------------------------------------------------------------------------------------------------------------------------------------------------------------------------------------------------------------------------------------------------------------------.--
(PID.TID 0000.0001) //      0 ---.-------------------------------------------------------------------------------------------------------------------------------------------------------------------------------------------------------------------------------------------------------------------------------------------------------------------------------.--
(PID.TID 0000.0001) //     -1 ---.-------------------------------------------------------------------------------------------------------------------------------------------------------------------------------------------------------------------------------------------------------------------------------------------------------------------------------.--
(PID.TID 0000.0001) //     -2 ---.-------------------------------------------------------------------------------------------------------------------------------------------------------------------------------------------------------------------------------------------------------------------------------------------------------------------------------.--
(PID.TID 0000.0001) // =======================================================
(PID.TID 0000.0001) // END OF FIELD                                          =
(PID.TID 0000.0001) // =======================================================
(PID.TID 0000.0001) 
(PID.TID 0000.0001) // =======================================================
(PID.TID 0000.0001) // Field hFacW at iteration          1
(PID.TID 0000.0001) // CMIN =          1.000000000000000E+00
(PID.TID 0000.0001) // CMAX =          1.000000000000000E+00
(PID.TID 0000.0001) // CINT =          0.000000000000000E+00
(PID.TID 0000.0001) // SYMBOLS (CMIN->CMAX): -abcdefghijklmnopqrstuvwxyz+
(PID.TID 0000.0001) //                  0.0: .
(PID.TID 0000.0001) // RANGE I (Lo:Hi:Step):(  -2: 323:   1)
(PID.TID 0000.0001) // RANGE J (Lo:Hi:Step):(   4:  -2:  -1)
(PID.TID 0000.0001) // RANGE K (Lo:Hi:Step):(   1:   1:   1)
(PID.TID 0000.0001) // =======================================================
(PID.TID 0000.0001) K =   1
(PID.TID 0000.0001) //                I=7       I=17      I=27      I=37      I=47      I=57      I=67      I=77      I=87      I=97      I=107     I=117     I=127     I=137     I=147     I=157     I=167     I=177     I=187     I=197     I=207     I=217     I=227     I=237     I=247     I=257     I=267     I=277     I=287     I=297     I=307     I=317
(PID.TID 0000.0001) // |--J--|**0123456|890123456|890123456|890123456|890123456|890123456|890123456|890123456|890123456|890123456|890123456|890123456|890123456|890123456|890123456|890123456|890123456|890123456|890123456|890123456|890123456|890123456|890123456|890123456|890123456|890123456|890123456|890123456|890123456|890123456|890123456|890123456|890123
(PID.TID 0000.0001) //      4 ---..------------------------------------------------------------------------------------------------------------------------------------------------------------------------------------------------------------------------------------------------------------------------------------------------------------------------------..-
(PID.TID 0000.0001) //      3 ---..------------------------------------------------------------------------------------------------------------------------------------------------------------------------------------------------------------------------------------------------------------------------------------------------------------------------------..-
(PID.TID 0000.0001) //      2 ---..------------------------------------------------------------------------------------------------------------------------------------------------------------------------------------------------------------------------------------------------------------------------------------------------------------------------------..-
(PID.TID 0000.0001) //      1 ---..------------------------------------------------------------------------------------------------------------------------------------------------------------------------------------------------------------------------------------------------------------------------------------------------------------------------------..-
(PID.TID 0000.0001) //      0 ---..------------------------------------------------------------------------------------------------------------------------------------------------------------------------------------------------------------------------------------------------------------------------------------------------------------------------------..-
(PID.TID 0000.0001) //     -1 ---..------------------------------------------------------------------------------------------------------------------------------------------------------------------------------------------------------------------------------------------------------------------------------------------------------------------------------..-
(PID.TID 0000.0001) //     -2 ---..------------------------------------------------------------------------------------------------------------------------------------------------------------------------------------------------------------------------------------------------------------------------------------------------------------------------------..-
(PID.TID 0000.0001) // =======================================================
(PID.TID 0000.0001) // END OF FIELD                                          =
(PID.TID 0000.0001) // =======================================================
(PID.TID 0000.0001) 
(PID.TID 0000.0001) // =======================================================
(PID.TID 0000.0001) // Field hFacS at iteration          1
(PID.TID 0000.0001) // CMIN =          1.000000000000000E+00
(PID.TID 0000.0001) // CMAX =          1.000000000000000E+00
(PID.TID 0000.0001) // CINT =          0.000000000000000E+00
(PID.TID 0000.0001) // SYMBOLS (CMIN->CMAX): -abcdefghijklmnopqrstuvwxyz+
(PID.TID 0000.0001) //                  0.0: .
(PID.TID 0000.0001) // RANGE I (Lo:Hi:Step):(  -2: 323:   1)
(PID.TID 0000.0001) // RANGE J (Lo:Hi:Step):(   4:  -2:  -1)
(PID.TID 0000.0001) // RANGE K (Lo:Hi:Step):(   1:   1:   1)
(PID.TID 0000.0001) // =======================================================
(PID.TID 0000.0001) K =   1
(PID.TID 0000.0001) //                I=7       I=17      I=27      I=37      I=47      I=57      I=67      I=77      I=87      I=97      I=107     I=117     I=127     I=137     I=147     I=157     I=167     I=177     I=187     I=197     I=207     I=217     I=227     I=237     I=247     I=257     I=267     I=277     I=287     I=297     I=307     I=317
(PID.TID 0000.0001) // |--J--|**0123456|890123456|890123456|890123456|890123456|890123456|890123456|890123456|890123456|890123456|890123456|890123456|890123456|890123456|890123456|890123456|890123456|890123456|890123456|890123456|890123456|890123456|890123456|890123456|890123456|890123456|890123456|890123456|890123456|890123456|890123456|890123456|890123
(PID.TID 0000.0001) //      4 ---.-------------------------------------------------------------------------------------------------------------------------------------------------------------------------------------------------------------------------------------------------------------------------------------------------------------------------------.--
(PID.TID 0000.0001) //      3 ---.-------------------------------------------------------------------------------------------------------------------------------------------------------------------------------------------------------------------------------------------------------------------------------------------------------------------------------.--
(PID.TID 0000.0001) //      2 ---.-------------------------------------------------------------------------------------------------------------------------------------------------------------------------------------------------------------------------------------------------------------------------------------------------------------------------------.--
(PID.TID 0000.0001) //      1 ---.-------------------------------------------------------------------------------------------------------------------------------------------------------------------------------------------------------------------------------------------------------------------------------------------------------------------------------.--
(PID.TID 0000.0001) //      0 ---.-------------------------------------------------------------------------------------------------------------------------------------------------------------------------------------------------------------------------------------------------------------------------------------------------------------------------------.--
(PID.TID 0000.0001) //     -1 ---.-------------------------------------------------------------------------------------------------------------------------------------------------------------------------------------------------------------------------------------------------------------------------------------------------------------------------------.--
(PID.TID 0000.0001) //     -2 ---.-------------------------------------------------------------------------------------------------------------------------------------------------------------------------------------------------------------------------------------------------------------------------------------------------------------------------------.--
(PID.TID 0000.0001) // =======================================================
(PID.TID 0000.0001) // END OF FIELD                                          =
(PID.TID 0000.0001) // =======================================================
(PID.TID 0000.0001) 
(PID.TID 0000.0001) %MON fCori_max                    =   0.0000000000000E+00
(PID.TID 0000.0001) %MON fCori_min                    =   0.0000000000000E+00
(PID.TID 0000.0001) %MON fCori_mean                   =   0.0000000000000E+00
(PID.TID 0000.0001) %MON fCori_sd                     =   0.0000000000000E+00
(PID.TID 0000.0001) %MON fCoriG_max                   =   0.0000000000000E+00
(PID.TID 0000.0001) %MON fCoriG_min                   =   0.0000000000000E+00
(PID.TID 0000.0001) %MON fCoriG_mean                  =   0.0000000000000E+00
(PID.TID 0000.0001) %MON fCoriG_sd                    =   0.0000000000000E+00
(PID.TID 0000.0001)  PACKAGES_BOOT: opening data.pkg
(PID.TID 0000.0001)  OPEN_COPY_DATA_FILE: opening file data.pkg
(PID.TID 0000.0001) // =======================================================
(PID.TID 0000.0001) // Parameter file "data.pkg"
(PID.TID 0000.0001) // =======================================================
(PID.TID 0000.0001) ># Packages
(PID.TID 0000.0001) > &PACKAGES
(PID.TID 0000.0001) > useOBCS=.TRUE.,
(PID.TID 0000.0001) > &
(PID.TID 0000.0001) 
(PID.TID 0000.0001)  PACKAGES_BOOT: finished reading data.pkg
(PID.TID 0000.0001)  OBCS_READPARMS: opening data.obcs
(PID.TID 0000.0001)  OPEN_COPY_DATA_FILE: opening file data.obcs
(PID.TID 0000.0001) // =======================================================
(PID.TID 0000.0001) // Parameter file "data.obcs"
(PID.TID 0000.0001) // =======================================================
(PID.TID 0000.0001) ># Open-boundaries
(PID.TID 0000.0001) > &OBCS_PARM01
(PID.TID 0000.0001) > OB_Ieast=1*-1,
(PID.TID 0000.0001) > useOrlanskiEast=.TRUE.,
(PID.TID 0000.0001) > &
(PID.TID 0000.0001) >
(PID.TID 0000.0001) ># Orlanski parameters
(PID.TID 0000.0001) > &OBCS_PARM02
(PID.TID 0000.0001) > Cmax=0.45,
(PID.TID 0000.0001) > cVelTimeScale=1000.,
(PID.TID 0000.0001) > &
(PID.TID 0000.0001) 
 OB Jn = 0 0 0 0 0 0 0 0 0 0 0 0 0 0 0 0 0 0 0 0 0 0 0 0 0 0 0 0 0 0 0 0 0 0 0 0
 0 0 0 0 0 0 0 0 0 0 0 0 0 0 0 0 0 0 0 0 0 0 0 0 0 0 0 0 0 0 0 0 0 0 0 0 0 0 0 0
 0 0 0 0 0 0 0 0 0 0 0 0 0 0 0 0 0 0 0 0 0 0 0 0 0 0 0 0 0 0 0 0 0 0 0 0 0 0 0 0
 0 0 0 0 0 0 0 0 0 0 0 0 0 0 0 0 0 0 0 0 0 0 0 0 0 0 0 0 0 0 0 0 0 0 0 0 0 0 0 0
 0 0 0 0 0 0 0 0 0 0 0 0 0 0 0 0 0 0 0 0 0 0 0 0 0 0 0 0 0 0 0 0 0 0 0 0 0 0 0 0
 0 0 0 0 0 0 0 0 0 0 0 0 0 0 0 0 0 0 0 0 0 0 0 0 0 0 0 0 0 0 0 0 0 0 0 0 0 0 0 0
 0 0 0 0 0 0 0 0 0 0 0 0 0 0 0 0 0 0 0 0 0 0 0 0 0 0 0 0 0 0 0 0 0 0 0 0 0 0 0 0
 0 0 0 0 0 0 0 0 0 0 0 0 0 0 0 0 0 0 0 0 0 0 0 0 0 0 0 0 0 0 0 0 0 0 0 0 0 0 0 0
 0 0 0 0
 OB Js = 0 0 0 0 0 0 0 0 0 0 0 0 0 0 0 0 0 0 0 0 0 0 0 0 0 0 0 0 0 0 0 0 0 0 0 0
 0 0 0 0 0 0 0 0 0 0 0 0 0 0 0 0 0 0 0 0 0 0 0 0 0 0 0 0 0 0 0 0 0 0 0 0 0 0 0 0
 0 0 0 0 0 0 0 0 0 0 0 0 0 0 0 0 0 0 0 0 0 0 0 0 0 0 0 0 0 0 0 0 0 0 0 0 0 0 0 0
 0 0 0 0 0 0 0 0 0 0 0 0 0 0 0 0 0 0 0 0 0 0 0 0 0 0 0 0 0 0 0 0 0 0 0 0 0 0 0 0
 0 0 0 0 0 0 0 0 0 0 0 0 0 0 0 0 0 0 0 0 0 0 0 0 0 0 0 0 0 0 0 0 0 0 0 0 0 0 0 0
 0 0 0 0 0 0 0 0 0 0 0 0 0 0 0 0 0 0 0 0 0 0 0 0 0 0 0 0 0 0 0 0 0 0 0 0 0 0 0 0
 0 0 0 0 0 0 0 0 0 0 0 0 0 0 0 0 0 0 0 0 0 0 0 0 0 0 0 0 0 0 0 0 0 0 0 0 0 0 0 0
 0 0 0 0 0 0 0 0 0 0 0 0 0 0 0 0 0 0 0 0 0 0 0 0 0 0 0 0 0 0 0 0 0 0 0 0 0 0 0 0
 0 0 0 0
 OB Ie = 320
 OB Iw = 0
(PID.TID 0000.0001)  OBCS_READPARMS: finished reading data.obcs
(PID.TID 0000.0001) OBCS_CHECK: #define ALLOW_OBCS
(PID.TID 0000.0001) OBCS_CHECK: #define ALLOW_ORLANSKI
(PID.TID 0000.0001) OBCS_CHECK: OK
(PID.TID 0000.0001) 
(PID.TID 0000.0001) // ===================================
(PID.TID 0000.0001) // GAD parameters :
(PID.TID 0000.0001) // ===================================
(PID.TID 0000.0001) tempAdvScheme =   /* Temp. advection scheme selector */
(PID.TID 0000.0001)                      33
(PID.TID 0000.0001)     ;
(PID.TID 0000.0001) tempMultiDimAdvec =   /* use Muti-Dim Advec method for Temp */
(PID.TID 0000.0001)                   T
(PID.TID 0000.0001)     ;
(PID.TID 0000.0001) tempAdamsBashforth =   /* use Adams-Bashforth time-stepping for Temp */
(PID.TID 0000.0001)                   F
(PID.TID 0000.0001)     ;
(PID.TID 0000.0001) saltAdvScheme =   /* Salt. advection scheme selector */
(PID.TID 0000.0001)                       2
(PID.TID 0000.0001)     ;
(PID.TID 0000.0001) saltMultiDimAdvec =   /* use Muti-Dim Advec method for Salt */
(PID.TID 0000.0001)                   F
(PID.TID 0000.0001)     ;
(PID.TID 0000.0001) saltAdamsBashforth =   /* use Adams-Bashforth time-stepping for Salt */
(PID.TID 0000.0001)                   T
(PID.TID 0000.0001)     ;
(PID.TID 0000.0001) // ===================================
(PID.TID 0000.0001) // CG2D normalisation factor =          0.3831118827572606798902155E-03
(PID.TID 0000.0001) 
(PID.TID 0000.0001) // CG3D normalisation factor =          0.4217234712667640981510753E-03
(PID.TID 0000.0001) 
(PID.TID 0000.0001) CONFIG_CHECK: OK
(PID.TID 0000.0001) // =======================================================
(PID.TID 0000.0001) // Model configuration
(PID.TID 0000.0001) // =======================================================
(PID.TID 0000.0001) //
(PID.TID 0000.0001) // "Physical" paramters ( PARM01 in namelist )
(PID.TID 0000.0001) //
(PID.TID 0000.0001) tRef =   /* Reference temperature profile ( oC or oK ) */
(PID.TID 0000.0001)    60 @  1.000000000000000E+00              /* K =  1: 60 */
(PID.TID 0000.0001)     ;
(PID.TID 0000.0001) sRef =   /* Reference salinity profile ( ppt ) */
(PID.TID 0000.0001)    60 @  3.500000000000000E+01              /* K =  1: 60 */
(PID.TID 0000.0001)     ;
(PID.TID 0000.0001) viscAh =   /* Lateral eddy viscosity ( m^2/s ) */
(PID.TID 0000.0001)                 1.000000000000000E-02
(PID.TID 0000.0001)     ;
(PID.TID 0000.0001) viscAh =   /* Lateral biharmonic viscosity ( m^4/s ) */
(PID.TID 0000.0001)                 0.000000000000000E+00
(PID.TID 0000.0001)     ;
(PID.TID 0000.0001) no_slip_sides =  /* Viscous BCs: No-slip sides */
(PID.TID 0000.0001)                   T
(PID.TID 0000.0001)     ;
(PID.TID 0000.0001) viscAz =   /* Vertical eddy viscosity ( m^2/s ) */
(PID.TID 0000.0001)                 1.000000000000000E-03
(PID.TID 0000.0001)     ;
(PID.TID 0000.0001) viscAr =   /* Vertical eddy viscosity ( units of r^2/s ) */
(PID.TID 0000.0001)                 1.000000000000000E-03
(PID.TID 0000.0001)     ;
(PID.TID 0000.0001) diffKhT =   /* Laplacian diffusion of heat laterally ( m^2/s ) */
(PID.TID 0000.0001)                 0.000000000000000E+00
(PID.TID 0000.0001)     ;
(PID.TID 0000.0001) diffK4T =   /* Bihaarmonic diffusion of heat laterally ( m^4/s ) */
(PID.TID 0000.0001)                 0.000000000000000E+00
(PID.TID 0000.0001)     ;
(PID.TID 0000.0001) diffKzT =   /* Laplacian diffusion of heat vertically ( m^2/s ) */
(PID.TID 0000.0001)                 0.000000000000000E+00
(PID.TID 0000.0001)     ;
(PID.TID 0000.0001) diffKrT =   /* Laplacian diffusion of heat vertically ( m^2/s ) */
(PID.TID 0000.0001)                 0.000000000000000E+00
(PID.TID 0000.0001)     ;
(PID.TID 0000.0001) diffKhS =   /* Laplacian diffusion of salt laterally ( m^2/s ) */
(PID.TID 0000.0001)                 1.000000000000000E-02
(PID.TID 0000.0001)     ;
(PID.TID 0000.0001) diffK4S =   /* Bihaarmonic diffusion of salt laterally ( m^4/s ) */
(PID.TID 0000.0001)                 0.000000000000000E+00
(PID.TID 0000.0001)     ;
(PID.TID 0000.0001) diffKzS =   /* Laplacian diffusion of salt vertically ( m^2/s ) */
(PID.TID 0000.0001)                 1.000000000000000E-05
(PID.TID 0000.0001)     ;
(PID.TID 0000.0001) diffKrS =   /* Laplacian diffusion of salt vertically ( m^2/s ) */
(PID.TID 0000.0001)                 1.000000000000000E-05
(PID.TID 0000.0001)     ;
(PID.TID 0000.0001) tAlpha =   /* Linear EOS thermal expansion coefficient ( 1/degree ) */
(PID.TID 0000.0001)                 2.000000000000000E-04
(PID.TID 0000.0001)     ;
(PID.TID 0000.0001) sBeta =   /* Linear EOS haline contraction coefficient ( 1/ppt ) */
(PID.TID 0000.0001)                 0.000000000000000E+00
(PID.TID 0000.0001)     ;
(PID.TID 0000.0001) rhonil =   /* Reference density ( kg/m^3 ) */
(PID.TID 0000.0001)                 9.998000000000000E+02
(PID.TID 0000.0001)     ;
(PID.TID 0000.0001) rhoConst =   /* Reference density ( kg/m^3 ) */
(PID.TID 0000.0001)                 9.998000000000000E+02
(PID.TID 0000.0001)     ;
(PID.TID 0000.0001) gravity =   /* Gravitational acceleration ( m/s^2 ) */
(PID.TID 0000.0001)                 9.810000000000000E+00
(PID.TID 0000.0001)     ;
(PID.TID 0000.0001) gBaro =   /* Barotropic gravity ( m/s^2 ) */
(PID.TID 0000.0001)                 9.810000000000000E+00
(PID.TID 0000.0001)     ;
(PID.TID 0000.0001) f0 =   /* Reference coriolis parameter ( 1/s ) */
(PID.TID 0000.0001)                 0.000000000000000E+00
(PID.TID 0000.0001)     ;
(PID.TID 0000.0001) beta =   /* Beta ( 1/(m.s) ) */
(PID.TID 0000.0001)                 0.000000000000000E+00
(PID.TID 0000.0001)     ;
(PID.TID 0000.0001) freeSurfFac =   /* Implicit free surface factor */
(PID.TID 0000.0001)                 1.000000000000000E+00
(PID.TID 0000.0001)     ;
(PID.TID 0000.0001) implicitFreeSurface =   /* Implicit free surface on/off flag */
(PID.TID 0000.0001)                   T
(PID.TID 0000.0001)     ;
(PID.TID 0000.0001) rigidLid =   /* Rigid lid on/off flag */
(PID.TID 0000.0001)                   F
(PID.TID 0000.0001)     ;
(PID.TID 0000.0001) implicSurfPress =   /* Surface Pressure implicit factor (0-1)*/
(PID.TID 0000.0001)                 1.000000000000000E+00
(PID.TID 0000.0001)     ;
(PID.TID 0000.0001) implicDiv2Dflow =   /* Barot. Flow Div. implicit factor (0-1)*/
(PID.TID 0000.0001)                 1.000000000000000E+00
(PID.TID 0000.0001)     ;
(PID.TID 0000.0001) exactConserv =   /* Exact Volume Conservation on/off flag*/
(PID.TID 0000.0001)                   F
(PID.TID 0000.0001)     ;
(PID.TID 0000.0001) uniformLin_PhiSurf =   /* use uniform Bo_surf on/off flag*/
(PID.TID 0000.0001)                   T
(PID.TID 0000.0001)     ;
(PID.TID 0000.0001) nonlinFreeSurf =   /* Non-linear Free Surf. options (-1,0,1,2,3)*/
(PID.TID 0000.0001)                       0
(PID.TID 0000.0001)     ;
(PID.TID 0000.0001)      -1,0= Off ; 1,2,3= On, 2=+rescale gU,gV, 3=+update cg2d solv.
(PID.TID 0000.0001) hFacInf =   /* lower threshold for hFac (nonlinFreeSurf only)*/
(PID.TID 0000.0001)                 1.000000000000000E+00
(PID.TID 0000.0001)     ;
(PID.TID 0000.0001) hFacSup =   /* upper threshold for hFac (nonlinFreeSurf only)*/
(PID.TID 0000.0001)                 1.000000000000000E+00
(PID.TID 0000.0001)     ;
(PID.TID 0000.0001) useRealFreshWaterFlux =   /* Real Fresh Water Flux on/off flag*/
(PID.TID 0000.0001)                   F
(PID.TID 0000.0001)     ;
(PID.TID 0000.0001) convertFW2Salt = /* convert F.W. Flux to Salt Flux (-1=use local S)(ppt)*/
(PID.TID 0000.0001)                 3.500000000000000E+01
(PID.TID 0000.0001)     ;
(PID.TID 0000.0001) multiDimAdvection =   /* enable/disable Multi-Dim Advection */
(PID.TID 0000.0001)                   T
(PID.TID 0000.0001)     ;
(PID.TID 0000.0001) staggerTimeStep =   /* Stagger time stepping on/off flag */
(PID.TID 0000.0001)                   F
(PID.TID 0000.0001)     ;
(PID.TID 0000.0001) momStepping =  /* Momentum equation on/off flag */
(PID.TID 0000.0001)                   T
(PID.TID 0000.0001)     ;
(PID.TID 0000.0001) momAdvection =  /* Momentum advection on/off flag */
(PID.TID 0000.0001)                   T
(PID.TID 0000.0001)     ;
(PID.TID 0000.0001) momViscosity =  /* Momentum viscosity on/off flag */
(PID.TID 0000.0001)                   T
(PID.TID 0000.0001)     ;
(PID.TID 0000.0001) useCoriolis =  /* Coriolis on/off flag */
(PID.TID 0000.0001)                   T
(PID.TID 0000.0001)     ;
(PID.TID 0000.0001) momForcing =  /* Momentum forcing on/off flag */
(PID.TID 0000.0001)                   T
(PID.TID 0000.0001)     ;
(PID.TID 0000.0001) momPressureForcing =  /* Momentum pressure term on/off flag */
(PID.TID 0000.0001)                   T
(PID.TID 0000.0001)     ;
(PID.TID 0000.0001) tempStepping =  /* Temperature equation on/off flag */
(PID.TID 0000.0001)                   T
(PID.TID 0000.0001)     ;
(PID.TID 0000.0001) tempAdvection=  /* Temperature advection on/off flag */
(PID.TID 0000.0001)                   T
(PID.TID 0000.0001)     ;
(PID.TID 0000.0001) tempForcing  =  /* Temperature forcing on/off flag */
(PID.TID 0000.0001)                   T
(PID.TID 0000.0001)     ;
(PID.TID 0000.0001) saltStepping =  /* Salinity equation on/off flag */
(PID.TID 0000.0001)                   T
(PID.TID 0000.0001)     ;
(PID.TID 0000.0001) saltAdvection=  /* Salinity advection on/off flag */
(PID.TID 0000.0001)                   T
(PID.TID 0000.0001)     ;
(PID.TID 0000.0001) saltForcing  =  /* Salinity forcing on/off flag */
(PID.TID 0000.0001)                   T
(PID.TID 0000.0001)     ;
(PID.TID 0000.0001) nonHydrostatic =  /* Non-Hydrostatic on/off flag */
(PID.TID 0000.0001)                   T
(PID.TID 0000.0001)     ;
(PID.TID 0000.0001) //
(PID.TID 0000.0001) // Elliptic solver(s) paramters ( PARM02 in namelist )
(PID.TID 0000.0001) //
(PID.TID 0000.0001) cg2dMaxIters =   /* Upper limit on 2d con. grad iterations  */
(PID.TID 0000.0001)                     300
(PID.TID 0000.0001)     ;
(PID.TID 0000.0001) cg2dChkResFreq =   /* 2d con. grad convergence test frequency */
(PID.TID 0000.0001)                       1
(PID.TID 0000.0001)     ;
(PID.TID 0000.0001) cg2dTargetResidual =   /* 2d con. grad target residual  */
(PID.TID 0000.0001)                 1.000000000000000E-13
(PID.TID 0000.0001)     ;
(PID.TID 0000.0001) //
(PID.TID 0000.0001) // Time stepping paramters ( PARM03 in namelist )
(PID.TID 0000.0001) //
(PID.TID 0000.0001) nIter0 =   /* Base timestep number  */
(PID.TID 0000.0001)                       0
(PID.TID 0000.0001)     ;
(PID.TID 0000.0001) nTimeSteps =   /* Number of timesteps */
(PID.TID 0000.0001)                      20
(PID.TID 0000.0001)     ;
(PID.TID 0000.0001) deltatTmom =   /* Momentum equation timestep ( s ) */
(PID.TID 0000.0001)                 2.000000000000000E+01
(PID.TID 0000.0001)     ;
(PID.TID 0000.0001) deltatTtracer =   /* Tracer equation timestep ( s ) */
(PID.TID 0000.0001)                 2.000000000000000E+01
(PID.TID 0000.0001)     ;
(PID.TID 0000.0001) deltatTClock  =   /* Model clock timestep ( s ) */
(PID.TID 0000.0001)                 2.000000000000000E+01
(PID.TID 0000.0001)     ;
(PID.TID 0000.0001) cAdjFreq =   /* Convective adjustment interval ( s ) */
(PID.TID 0000.0001)                 0.000000000000000E+00
(PID.TID 0000.0001)     ;
(PID.TID 0000.0001) forcing_In_AB =   /* put T,S Forcing in Adams-Bash. stepping */
(PID.TID 0000.0001)                   T
(PID.TID 0000.0001)     ;
(PID.TID 0000.0001) abeps =   /* Adams-Bashforth stabilizing weight */
(PID.TID 0000.0001)                 1.000000000000000E-02
(PID.TID 0000.0001)     ;
(PID.TID 0000.0001) tauCD =   /* CD coupling time-scale ( s ) */
(PID.TID 0000.0001)                 2.000000000000000E+01
(PID.TID 0000.0001)     ;
(PID.TID 0000.0001) rCD =   /* Normalised CD coupling parameter */
(PID.TID 0000.0001)                 0.000000000000000E+00
(PID.TID 0000.0001)     ;
(PID.TID 0000.0001) startTime =   /* Run start time ( s ). */
(PID.TID 0000.0001)                 0.000000000000000E+00
(PID.TID 0000.0001)     ;
(PID.TID 0000.0001) endTime =   /* Integration ending time ( s ). */
(PID.TID 0000.0001)                 4.000000000000000E+02
(PID.TID 0000.0001)     ;
(PID.TID 0000.0001) pChkPtFreq =   /* Permanent restart/checkpoint file interval ( s ). */
(PID.TID 0000.0001)                 0.000000000000000E+00
(PID.TID 0000.0001)     ;
(PID.TID 0000.0001) chkPtFreq =   /* Rolling restart/checkpoint file interval ( s ). */
(PID.TID 0000.0001)                 0.000000000000000E+00
(PID.TID 0000.0001)     ;
(PID.TID 0000.0001) dumpFreq =   /* Model state write out interval ( s ). */
(PID.TID 0000.0001)                 6.000000000000000E+03
(PID.TID 0000.0001)     ;
(PID.TID 0000.0001) //
(PID.TID 0000.0001) // Gridding paramters ( PARM04 in namelist )
(PID.TID 0000.0001) //
(PID.TID 0000.0001) usingCartesianGrid =   /* Cartesian coordinates flag ( True / False ) */
(PID.TID 0000.0001)                   T
(PID.TID 0000.0001)     ;
(PID.TID 0000.0001) usingSphericalPolarGrid =   /* Spherical coordinates flag ( True / False ) */
(PID.TID 0000.0001)                   F
(PID.TID 0000.0001)     ;
(PID.TID 0000.0001) groundAtK1 =   /* Lower Boundary (ground) at the surface(k=1) ( T / F ) */
(PID.TID 0000.0001)                   F
(PID.TID 0000.0001)     ;
(PID.TID 0000.0001) Ro_SeaLevel =   /* r(1) ( units of r ) */
(PID.TID 0000.0001)                 0.000000000000000E+00
(PID.TID 0000.0001)     ;
(PID.TID 0000.0001) rkFac =   /* minus Vertical index orientation  */
(PID.TID 0000.0001)                 1.000000000000000E+00
(PID.TID 0000.0001)     ;
(PID.TID 0000.0001) horiVertRatio =   /* Ratio on units : Horiz - Vertical */
(PID.TID 0000.0001)                 1.000000000000000E+00
(PID.TID 0000.0001)     ;
(PID.TID 0000.0001) drC =   /* C spacing ( units of r ) */
(PID.TID 0000.0001)                 1.666666666666667E+00,      /* K =  1 */
(PID.TID 0000.0001)    59 @  3.333333333333333E+00              /* K =  2: 60 */
(PID.TID 0000.0001)     ;
(PID.TID 0000.0001) drF =   /* W spacing ( units of r ) */
(PID.TID 0000.0001)    60 @  3.333333333333333E+00              /* K =  1: 60 */
(PID.TID 0000.0001)     ;
(PID.TID 0000.0001) delX =   /* U spacing ( m - cartesian, degrees - spherical ) */
(PID.TID 0000.0001)                 1.333350557843028E+01,      /* I =  1 */
(PID.TID 0000.0001)                 1.333351440956528E+01,      /* I =  2 */
(PID.TID 0000.0001)                 1.333352369347595E+01,      /* I =  3 */
(PID.TID 0000.0001)                 1.333353345337592E+01,      /* I =  4 */
(PID.TID 0000.0001)                 1.333354371366897E+01,      /* I =  5 */
(PID.TID 0000.0001)                 1.333355450000997E+01,      /* I =  6 */
(PID.TID 0000.0001)                 1.333356583936910E+01,      /* I =  7 */
(PID.TID 0000.0001)                 1.333357776009920E+01,      /* I =  8 */
(PID.TID 0000.0001)                 1.333359029200671E+01,      /* I =  9 */
(PID.TID 0000.0001)                 1.333360346642616E+01,      /* I = 10 */
(PID.TID 0000.0001)                 1.333361731629850E+01,      /* I = 11 */
(PID.TID 0000.0001)                 1.333363187625347E+01,      /* I = 12 */
(PID.TID 0000.0001)                 1.333364718269615E+01,      /* I = 13 */
(PID.TID 0000.0001)                 1.333366327389799E+01,      /* I = 14 */
(PID.TID 0000.0001)                 1.333368019009244E+01,      /* I = 15 */
(PID.TID 0000.0001)                 1.333369797357559E+01,      /* I = 16 */
(PID.TID 0000.0001)                 1.333371666881184E+01,      /* I = 17 */
(PID.TID 0000.0001)                 1.333373632254509E+01,      /* I = 18 */
(PID.TID 0000.0001)                 1.333375698391556E+01,      /* I = 19 */
(PID.TID 0000.0001)                 1.333377870458262E+01,      /* I = 20 */
(PID.TID 0000.0001)                 1.333380153885394E+01,      /* I = 21 */
(PID.TID 0000.0001)                 1.333382554382122E+01,      /* I = 22 */
(PID.TID 0000.0001)                 1.333385077950289E+01,      /* I = 23 */
(PID.TID 0000.0001)                 1.333387730899413E+01,      /* I = 24 */
(PID.TID 0000.0001)                 1.333390519862456E+01,      /* I = 25 */
(PID.TID 0000.0001)                 1.333393451812401E+01,      /* I = 26 */
(PID.TID 0000.0001)                 1.333396534079683E+01,      /* I = 27 */
(PID.TID 0000.0001)                 1.333399774370505E+01,      /* I = 28 */
(PID.TID 0000.0001)                 1.333403180786100E+01,      /* I = 29 */
(PID.TID 0000.0001)                 1.333406761842972E+01,      /* I = 30 */
(PID.TID 0000.0001)                 1.333410526494186E+01,      /* I = 31 */
(PID.TID 0000.0001)                 1.333414484151735E+01,      /* I = 32 */
(PID.TID 0000.0001)                 1.333418644710058E+01,      /* I = 33 */
(PID.TID 0000.0001)                 1.333423018570770E+01,      /* I = 34 */
(PID.TID 0000.0001)                 1.333427616668645E+01,      /* I = 35 */
(PID.TID 0000.0001)                 1.333432450498941E+01,      /* I = 36 */
(PID.TID 0000.0001)                 1.333437532146121E+01,      /* I = 37 */
(PID.TID 0000.0001)                 1.333442874314039E+01,      /* I = 38 */
(PID.TID 0000.0001)                 1.333448490357685E+01,      /* I = 39 */
(PID.TID 0000.0001)                 1.333454394316540E+01,      /* I = 40 */
(PID.TID 0000.0001)                 1.333460600949649E+01,      /* I = 41 */
(PID.TID 0000.0001)                 1.333467125772490E+01,      /* I = 42 */
(PID.TID 0000.0001)                 1.333473985095722E+01,      /* I = 43 */
(PID.TID 0000.0001)                 1.333481196065927E+01,      /* I = 44 */
(PID.TID 0000.0001)                 1.333488776708430E+01,      /* I = 45 */
(PID.TID 0000.0001)                 1.333496745972311E+01,      /* I = 46 */
(PID.TID 0000.0001)                 1.333505123777728E+01,      /* I = 47 */
(PID.TID 0000.0001)                 1.333513931065653E+01,      /* I = 48 */
(PID.TID 0000.0001)                 1.333523189850155E+01,      /* I = 49 */
(PID.TID 0000.0001)                 1.333532923273362E+01,      /* I = 50 */
(PID.TID 0000.0001)                 1.333543155663230E+01,      /* I = 51 */
(PID.TID 0000.0001)                 1.333553912594271E+01,      /* I = 52 */
(PID.TID 0000.0001)                 1.333565220951381E+01,      /* I = 53 */
(PID.TID 0000.0001)                 1.333577108996939E+01,      /* I = 54 */
(PID.TID 0000.0001)                 1.333589606441332E+01,      /* I = 55 */
(PID.TID 0000.0001)                 1.333602744517087E+01,      /* I = 56 */
(PID.TID 0000.0001)                 1.333616556056795E+01,      /* I = 57 */
(PID.TID 0000.0001)                 1.333631075575012E+01,      /* I = 58 */
(PID.TID 0000.0001)                 1.333646339354350E+01,      /* I = 59 */
(PID.TID 0000.0001)                 1.333662385535963E+01,      /* I = 60 */
(PID.TID 0000.0001)                 1.333679254214663E+01,      /* I = 61 */
(PID.TID 0000.0001)                 1.333696987538879E+01,      /* I = 62 */
(PID.TID 0000.0001)                 1.333715629815737E+01,      /* I = 63 */
(PID.TID 0000.0001)                 1.333735227621493E+01,      /* I = 64 */
(PID.TID 0000.0001)                 1.333755829917607E+01,      /* I = 65 */
(PID.TID 0000.0001)                 1.333777488172740E+01,      /* I = 66 */
(PID.TID 0000.0001)                 1.333800256490973E+01,      /* I = 67 */
(PID.TID 0000.0001)                 1.333824191746569E+01,      /* I = 68 */
(PID.TID 0000.0001)                 1.333849353725603E+01,      /* I = 69 */
(PID.TID 0000.0001)                 1.333875805274814E+01,      /* I = 70 */
(PID.TID 0000.0001)                 1.333903612458039E+01,      /* I = 71 */
(PID.TID 0000.0001)                 1.333932844720622E+01,      /* I = 72 */
(PID.TID 0000.0001)                 1.333963575062193E+01,      /* I = 73 */
(PID.TID 0000.0001)                 1.333995880218238E+01,      /* I = 74 */
(PID.TID 0000.0001)                 1.334029840850922E+01,      /* I = 75 */
(PID.TID 0000.0001)                 1.334065541749604E+01,      /* I = 76 */
(PID.TID 0000.0001)                 1.334103072041559E+01,      /* I = 77 */
(PID.TID 0000.0001)                 1.334142525413410E+01,      /* I = 78 */
(PID.TID 0000.0001)                 1.334184000343805E+01,      /* I = 79 */
(PID.TID 0000.0001)                 1.334227600347911E+01,      /* I = 80 */
(PID.TID 0000.0001)                 1.334273434234323E+01,      /* I = 81 */
(PID.TID 0000.0001)                 1.334321616375004E+01,      /* I = 82 */
(PID.TID 0000.0001)                 1.334372266988904E+01,      /* I = 83 */
(PID.TID 0000.0001)                 1.334425512439963E+01,      /* I = 84 */
(PID.TID 0000.0001)                 1.334481485550199E+01,      /* I = 85 */
(PID.TID 0000.0001)                 1.334540325928642E+01,      /* I = 86 */
(PID.TID 0000.0001)                 1.334602180316902E+01,      /* I = 87 */
(PID.TID 0000.0001)                 1.334667202952212E+01,      /* I = 88 */
(PID.TID 0000.0001)                 1.334735555948791E+01,      /* I = 89 */
(PID.TID 0000.0001)                 1.334807409698463E+01,      /* I = 90 */
(PID.TID 0000.0001)                 1.334882943291471E+01,      /* I = 91 */
(PID.TID 0000.0001)                 1.334962344958492E+01,      /* I = 92 */
(PID.TID 0000.0001)                 1.335045812534896E+01,      /* I = 93 */
(PID.TID 0000.0001)                 1.335133553948354E+01,      /* I = 94 */
(PID.TID 0000.0001)                 1.335225787730935E+01,      /* I = 95 */
(PID.TID 0000.0001)                 1.335322743556898E+01,      /* I = 96 */
(PID.TID 0000.0001)                 1.335424662807443E+01,      /* I = 97 */
(PID.TID 0000.0001)                 1.335531799163729E+01,      /* I = 98 */
(PID.TID 0000.0001)                 1.335644419229545E+01,      /* I = 99 */
(PID.TID 0000.0001)                 1.335762803185068E+01,      /* I =100 */
(PID.TID 0000.0001)                 1.335887245473227E+01,      /* I =101 */
(PID.TID 0000.0001)                 1.336018055520228E+01,      /* I =102 */
(PID.TID 0000.0001)                 1.336155558491909E+01,      /* I =103 */
(PID.TID 0000.0001)                 1.336300096087628E+01,      /* I =104 */
(PID.TID 0000.0001)                 1.336452027373481E+01,      /* I =105 */
(PID.TID 0000.0001)                 1.336611729656740E+01,      /* I =106 */
(PID.TID 0000.0001)                 1.336779599403433E+01,      /* I =107 */
(PID.TID 0000.0001)                 1.336956053201144E+01,      /* I =108 */
(PID.TID 0000.0001)                 1.337141528769127E+01,      /* I =109 */
(PID.TID 0000.0001)                 1.337336486017965E+01,      /* I =110 */
(PID.TID 0000.0001)                 1.337541408161077E+01,      /* I =111 */
(PID.TID 0000.0001)                 1.337756802880465E+01,      /* I =112 */
(PID.TID 0000.0001)                 1.337983203549213E+01,      /* I =113 */
(PID.TID 0000.0001)                 1.338221170513314E+01,      /* I =114 */
(PID.TID 0000.0001)                 1.338471292435540E+01,      /* I =115 */
(PID.TID 0000.0001)                 1.338734187704133E+01,      /* I =116 */
(PID.TID 0000.0001)                 1.339010505909238E+01,      /* I =117 */
(PID.TID 0000.0001)                 1.339300929390070E+01,      /* I =118 */
(PID.TID 0000.0001)                 1.339606174855942E+01,      /* I =119 */
(PID.TID 0000.0001)                 1.339926995084359E+01,      /* I =120 */
(PID.TID 0000.0001)                 1.340264180699529E+01,      /* I =121 */
(PID.TID 0000.0001)                 1.340618562034696E+01,      /* I =122 */
(PID.TID 0000.0001)                 1.340991011081868E+01,      /* I =123 */
(PID.TID 0000.0001)                 1.341382443532556E+01,      /* I =124 */
(PID.TID 0000.0001)                 1.341793820913294E+01,      /* I =125 */
(PID.TID 0000.0001)                 1.342226152819769E+01,      /* I =126 */
(PID.TID 0000.0001)                 1.342680499253510E+01,      /* I =127 */
(PID.TID 0000.0001)                 1.343157973065163E+01,      /* I =128 */
(PID.TID 0000.0001)                 1.343659742508456E+01,      /* I =129 */
(PID.TID 0000.0001)                 1.344187033909057E+01,      /* I =130 */
(PID.TID 0000.0001)                 1.344741134452547E+01,      /* I =131 */
(PID.TID 0000.0001)                 1.345323395095843E+01,      /* I =132 */
(PID.TID 0000.0001)                 1.345935233606388E+01,      /* I =133 */
(PID.TID 0000.0001)                 1.346578137733485E+01,      /* I =134 */
(PID.TID 0000.0001)                 1.347253668516156E+01,      /* I =135 */
(PID.TID 0000.0001)                 1.347963463731868E+01,      /* I =136 */
(PID.TID 0000.0001)                 1.348709241490466E+01,      /* I =137 */
(PID.TID 0000.0001)                 1.349492803977558E+01,      /* I =138 */
(PID.TID 0000.0001)                 1.350316041351508E+01,      /* I =139 */
(PID.TID 0000.0001)                 1.351180935798093E+01,      /* I =140 */
(PID.TID 0000.0001)                 1.352089565746654E+01,      /* I =141 */
(PID.TID 0000.0001)                 1.353044110251419E+01,      /* I =142 */
(PID.TID 0000.0001)                 1.354046853541373E+01,      /* I =143 */
(PID.TID 0000.0001)                 1.355100189741760E+01,      /* I =144 */
(PID.TID 0000.0001)                 1.356206627769899E+01,      /* I =145 */
(PID.TID 0000.0001)                 1.357368796407594E+01,      /* I =146 */
(PID.TID 0000.0001)                 1.358589449551856E+01,      /* I =147 */
(PID.TID 0000.0001)                 1.359871471645078E+01,      /* I =148 */
(PID.TID 0000.0001)                 1.361217883285115E+01,      /* I =149 */
(PID.TID 0000.0001)                 1.362631847014915E+01,      /* I =150 */
(PID.TID 0000.0001)                 1.364116673290460E+01,      /* I =151 */
(PID.TID 0000.0001)                 1.365675826624731E+01,      /* I =152 */
(PID.TID 0000.0001)                 1.367312931904298E+01,      /* I =153 */
(PID.TID 0000.0001)                 1.369031780873773E+01,      /* I =154 */
(PID.TID 0000.0001)                 1.370836338781988E+01,      /* I =155 */
(PID.TID 0000.0001)                 1.372730751182062E+01,      /* I =156 */
(PID.TID 0000.0001)                 1.374719350875757E+01,      /* I =157 */
(PID.TID 0000.0001)                 1.376806664990509E+01,      /* I =158 */
(PID.TID 0000.0001)                 1.378997422175274E+01,      /* I =159 */
(PID.TID 0000.0001)                 1.381296559898911E+01,      /* I =160 */
(PID.TID 0000.0001)                 1.383709231832104E+01,      /* I =161 */
(PID.TID 0000.0001)                 1.386240815290873E+01,      /* I =162 */
(PID.TID 0000.0001)                 1.388896918716481E+01,      /* I =163 */
(PID.TID 0000.0001)                 1.391683389163015E+01,      /* I =164 */
(PID.TID 0000.0001)                 1.394606319760068E+01,      /* I =165 */
(PID.TID 0000.0001)                 1.397672057113785E+01,      /* I =166 */
(PID.TID 0000.0001)                 1.400887208604991E+01,      /* I =167 */
(PID.TID 0000.0001)                 1.404258649538309E+01,      /* I =168 */
(PID.TID 0000.0001)                 1.407793530090862E+01,      /* I =169 */
(PID.TID 0000.0001)                 1.411499282003617E+01,      /* I =170 */
(PID.TID 0000.0001)                 1.415383624952395E+01,      /* I =171 */
(PID.TID 0000.0001)                 1.419454572529201E+01,      /* I =172 */
(PID.TID 0000.0001)                 1.423720437757808E+01,      /* I =173 */
(PID.TID 0000.0001)                 1.428189838060363E+01,      /* I =174 */
(PID.TID 0000.0001)                 1.432871699584345E+01,      /* I =175 */
(PID.TID 0000.0001)                 1.437775260791372E+01,      /* I =176 */
(PID.TID 0000.0001)                 1.442910075201240E+01,      /* I =177 */
(PID.TID 0000.0001)                 1.448286013176230E+01,      /* I =178 */
(PID.TID 0000.0001)                 1.453913262622100E+01,      /* I =179 */
(PID.TID 0000.0001)                 1.459802328473512E+01,      /* I =180 */
(PID.TID 0000.0001)                 1.465964030822818E+01,      /* I =181 */
(PID.TID 0000.0001)                 1.472409501542447E+01,      /* I =182 */
(PID.TID 0000.0001)                 1.479150179242509E+01,      /* I =183 */
(PID.TID 0000.0001)                 1.486197802396983E+01,      /* I =184 */
(PID.TID 0000.0001)                 1.493564400464020E+01,      /* I =185 */
(PID.TID 0000.0001)                 1.501262282818657E+01,      /* I =186 */
(PID.TID 0000.0001)                 1.509304025309917E+01,      /* I =187 */
(PID.TID 0000.0001)                 1.517702454248925E+01,      /* I =188 */
(PID.TID 0000.0001)                 1.526470627630714E+01,      /* I =189 */
(PID.TID 0000.0001)                 1.535621813389983E+01,      /* I =190 */
(PID.TID 0000.0001)                 1.545169464490609E+01,      /* I =191 */
(PID.TID 0000.0001)                 1.555127190650460E+01,      /* I =192 */
(PID.TID 0000.0001)                 1.565508726507390E+01,      /* I =193 */
(PID.TID 0000.0001)                 1.576327896039616E+01,      /* I =194 */
(PID.TID 0000.0001)                 1.587598573064292E+01,      /* I =195 */
(PID.TID 0000.0001)                 1.599334637652494E+01,      /* I =196 */
(PID.TID 0000.0001)                 1.611549928317337E+01,      /* I =197 */
(PID.TID 0000.0001)                 1.624258189854968E+01,      /* I =198 */
(PID.TID 0000.0001)                 1.637473016746109E+01,      /* I =199 */
(PID.TID 0000.0001)                 1.651207792058980E+01,      /* I =200 */
(PID.TID 0000.0001)                 1.665475621833111E+01,      /* I =201 */
(PID.TID 0000.0001)                 1.680289264967994E+01,      /* I =202 */
(PID.TID 0000.0001)                 1.695661058690918E+01,      /* I =203 */
(PID.TID 0000.0001)                 1.711602839734634E+01,      /* I =204 */
(PID.TID 0000.0001)                 1.728125861417839E+01,      /* I =205 */
(PID.TID 0000.0001)                 1.745240706889426E+01,      /* I =206 */
(PID.TID 0000.0001)                 1.762957198870894E+01,      /* I =207 */
(PID.TID 0000.0001)                 1.781284306309535E+01,      /* I =208 */
(PID.TID 0000.0001)                 1.800230048437439E+01,      /* I =209 */
(PID.TID 0000.0001)                 1.819801396816951E+01,      /* I =210 */
(PID.TID 0000.0001)                 1.840004176040835E+01,      /* I =211 */
(PID.TID 0000.0001)                 1.860842963843782E+01,      /* I =212 */
(PID.TID 0000.0001)                 1.882320991469193E+01,      /* I =213 */
(PID.TID 0000.0001)                 1.904440045219844E+01,      /* I =214 */
(PID.TID 0000.0001)                 1.927200370200823E+01,      /* I =215 */
(PID.TID 0000.0001)                 1.950600577335953E+01,      /* I =216 */
(PID.TID 0000.0001)                 1.974637554802371E+01,      /* I =217 */
(PID.TID 0000.0001)                 1.999306385079687E+01,      /* I =218 */
(PID.TID 0000.0001)                 2.024600268847589E+01,      /* I =219 */
(PID.TID 0000.0001)                 2.050510456986654E+01,      /* I =220 */
(PID.TID 0000.0001)                 2.077026191939032E+01,      /* I =221 */
(PID.TID 0000.0001)                 2.104134659666656E+01,      /* I =222 */
(PID.TID 0000.0001)                 2.131820953402739E+01,      /* I =223 */
(PID.TID 0000.0001)                 2.160068050326367E+01,      /* I =224 */
(PID.TID 0000.0001)                 2.188856802198952E+01,      /* I =225 */
(PID.TID 0000.0001)                 2.218165940884890E+01,      /* I =226 */
(PID.TID 0000.0001)                 2.247972099537336E+01,      /* I =227 */
(PID.TID 0000.0001)                 2.278249850064545E+01,      /* I =228 */
(PID.TID 0000.0001)                 2.308971757304531E+01,      /* I =229 */
(PID.TID 0000.0001)                 2.340108450128388E+01,      /* I =230 */
(PID.TID 0000.0001)                 2.371628709468741E+01,      /* I =231 */
(PID.TID 0000.0001)                 2.403499573033461E+01,      /* I =232 */
(PID.TID 0000.0001)                 2.435686456220453E+01,      /* I =233 */
(PID.TID 0000.0001)                 2.468153288502243E+01,      /* I =234 */
(PID.TID 0000.0001)                 2.500862664304538E+01,      /* I =235 */
(PID.TID 0000.0001)                 2.533776007166725E+01,      /* I =236 */
(PID.TID 0000.0001)                 2.566853745750001E+01,      /* I =237 */
(PID.TID 0000.0001)                 2.600055500056160E+01,      /* I =238 */
(PID.TID 0000.0001)                 2.633340276042106E+01,      /* I =239 */
(PID.TID 0000.0001)                 2.666666666666666E+01,      /* I =240 */
(PID.TID 0000.0001)                 2.699993057291228E+01,      /* I =241 */
(PID.TID 0000.0001)                 2.733277833277173E+01,      /* I =242 */
(PID.TID 0000.0001)                 2.766479587583332E+01,      /* I =243 */
(PID.TID 0000.0001)                 2.799557326166608E+01,      /* I =244 */
(PID.TID 0000.0001)                 2.832470669028795E+01,      /* I =245 */
(PID.TID 0000.0001)                 2.865180044831091E+01,      /* I =246 */
(PID.TID 0000.0001)                 2.897646877112880E+01,      /* I =247 */
(PID.TID 0000.0001)                 2.929833760299872E+01,      /* I =248 */
(PID.TID 0000.0001)                 2.961704623864592E+01,      /* I =249 */
(PID.TID 0000.0001)                 2.993224883204945E+01,      /* I =250 */
(PID.TID 0000.0001)                 3.024361576028802E+01,      /* I =251 */
(PID.TID 0000.0001)                 3.055083483268788E+01,      /* I =252 */
(PID.TID 0000.0001)                 3.085361233795997E+01,      /* I =253 */
(PID.TID 0000.0001)                 3.115167392448443E+01,      /* I =254 */
(PID.TID 0000.0001)                 3.144476531134382E+01,      /* I =255 */
(PID.TID 0000.0001)                 3.173265283006967E+01,      /* I =256 */
(PID.TID 0000.0001)                 3.201512379930595E+01,      /* I =257 */
(PID.TID 0000.0001)                 3.229198673666677E+01,      /* I =258 */
(PID.TID 0000.0001)                 3.256307141394301E+01,      /* I =259 */
(PID.TID 0000.0001)                 3.282822876346680E+01,      /* I =260 */
(PID.TID 0000.0001)                 3.308733064485744E+01,      /* I =261 */
(PID.TID 0000.0001)                 3.334026948253647E+01,      /* I =262 */
(PID.TID 0000.0001)                 3.358695778530962E+01,      /* I =263 */
(PID.TID 0000.0001)                 3.382732755997380E+01,      /* I =264 */
(PID.TID 0000.0001)                 3.406132963132509E+01,      /* I =265 */
(PID.TID 0000.0001)                 3.428893288113490E+01,      /* I =266 */
(PID.TID 0000.0001)                 3.451012341864140E+01,      /* I =267 */
(PID.TID 0000.0001)                 3.472490369489551E+01,      /* I =268 */
(PID.TID 0000.0001)                 3.493329157292499E+01,      /* I =269 */
(PID.TID 0000.0001)                 3.513531936516383E+01,      /* I =270 */
(PID.TID 0000.0001)                 3.533103284895893E+01,      /* I =271 */
(PID.TID 0000.0001)                 3.552049027023799E+01,      /* I =272 */
(PID.TID 0000.0001)                 3.570376134462440E+01,      /* I =273 */
(PID.TID 0000.0001)                 3.588092626443907E+01,      /* I =274 */
(PID.TID 0000.0001)                 3.605207471915494E+01,      /* I =275 */
(PID.TID 0000.0001)                 3.621730493598699E+01,      /* I =276 */
(PID.TID 0000.0001)                 3.637672274642415E+01,      /* I =277 */
(PID.TID 0000.0001)                 3.653044068365339E+01,      /* I =278 */
(PID.TID 0000.0001)                 3.667857711500223E+01,      /* I =279 */
(PID.TID 0000.0001)                 3.682125541274353E+01,      /* I =280 */
(PID.TID 0000.0001)                 3.695860316587224E+01,      /* I =281 */
(PID.TID 0000.0001)                 3.709075143478366E+01,      /* I =282 */
(PID.TID 0000.0001)                 3.721783405015996E+01,      /* I =283 */
(PID.TID 0000.0001)                 3.733998695680840E+01,      /* I =284 */
(PID.TID 0000.0001)                 3.745734760269041E+01,      /* I =285 */
(PID.TID 0000.0001)                 3.757005437293716E+01,      /* I =286 */
(PID.TID 0000.0001)                 3.767824606825943E+01,      /* I =287 */
(PID.TID 0000.0001)                 3.778206142682873E+01,      /* I =288 */
(PID.TID 0000.0001)                 3.788163868842724E+01,      /* I =289 */
(PID.TID 0000.0001)                 3.797711519943351E+01,      /* I =290 */
(PID.TID 0000.0001)                 3.806862705702619E+01,      /* I =291 */
(PID.TID 0000.0001)                 3.815630879084409E+01,      /* I =292 */
(PID.TID 0000.0001)                 3.824029308023417E+01,      /* I =293 */
(PID.TID 0000.0001)                 3.832071050514676E+01,      /* I =294 */
(PID.TID 0000.0001)                 3.839768932869313E+01,      /* I =295 */
(PID.TID 0000.0001)                 3.847135530936350E+01,      /* I =296 */
(PID.TID 0000.0001)                 3.854183154090824E+01,      /* I =297 */
(PID.TID 0000.0001)                 3.860923831790885E+01,      /* I =298 */
(PID.TID 0000.0001)                 3.867369302510515E+01,      /* I =299 */
(PID.TID 0000.0001)                 3.873531004859822E+01,      /* I =300 */
(PID.TID 0000.0001)                 3.879420070711233E+01,      /* I =301 */
(PID.TID 0000.0001)                 3.885047320157103E+01,      /* I =302 */
(PID.TID 0000.0001)                 3.890423258132093E+01,      /* I =303 */
(PID.TID 0000.0001)                 3.895558072541962E+01,      /* I =304 */
(PID.TID 0000.0001)                 3.900461633748988E+01,      /* I =305 */
(PID.TID 0000.0001)                 3.905143495272970E+01,      /* I =306 */
(PID.TID 0000.0001)                 3.909612895575525E+01,      /* I =307 */
(PID.TID 0000.0001)                 3.913878760804132E+01,      /* I =308 */
(PID.TID 0000.0001)                 3.917949708380939E+01,      /* I =309 */
(PID.TID 0000.0001)                 3.921834051329716E+01,      /* I =310 */
(PID.TID 0000.0001)                 3.925539803242471E+01,      /* I =311 */
(PID.TID 0000.0001)                 3.929074683795024E+01,      /* I =312 */
(PID.TID 0000.0001)                 3.932446124728342E+01,      /* I =313 */
(PID.TID 0000.0001)                 3.935661276219549E+01,      /* I =314 */
(PID.TID 0000.0001)                 3.938727013573265E+01,      /* I =315 */
(PID.TID 0000.0001)                 3.941649944170319E+01,      /* I =316 */
(PID.TID 0000.0001)                 3.944436414616852E+01,      /* I =317 */
(PID.TID 0000.0001)                 3.947092518042460E+01,      /* I =318 */
(PID.TID 0000.0001)                 3.949624101501229E+01,      /* I =319 */
(PID.TID 0000.0001)                 3.952036773434423E+01       /* I =320 */
(PID.TID 0000.0001)     ;
(PID.TID 0000.0001) delY =   /* V spacing ( m - cartesian, degrees - spherical ) */
(PID.TID 0000.0001)                 2.000000000000000E+02       /* J =  1 */
(PID.TID 0000.0001)     ;
(PID.TID 0000.0001) phiMin =    /* South edge (ignored - cartesian, degrees - spherical ) */
(PID.TID 0000.0001)                 0.000000000000000E+00
(PID.TID 0000.0001)     ;
(PID.TID 0000.0001) thetaMin =    /* West edge ( ignored - cartesian, degrees - spherical ) */
(PID.TID 0000.0001)                 0.000000000000000E+00
(PID.TID 0000.0001)     ;
(PID.TID 0000.0001) rSphere =    /* Radius ( ignored - cartesian, m - spherical ) */
(PID.TID 0000.0001)                 6.370000000000000E+06
(PID.TID 0000.0001)     ;
(PID.TID 0000.0001) xcoord =   /* P-point X coord ( m - cartesian, degrees - spherical ) */
(PID.TID 0000.0001)                 6.666752789215142E+00,      /* I =  1 */
(PID.TID 0000.0001)                 2.000026278321292E+01,      /* I =  2 */
(PID.TID 0000.0001)                 3.333378183473354E+01,      /* I =  3 */
(PID.TID 0000.0001)                 4.666731040815947E+01,      /* I =  4 */
(PID.TID 0000.0001)                 6.000084899168192E+01,      /* I =  5 */
(PID.TID 0000.0001)                 7.333439809852139E+01,      /* I =  6 */
(PID.TID 0000.0001)                 8.666795826821092E+01,      /* I =  7 */
(PID.TID 0000.0001)                 1.000015300679451E+02,      /* I =  8 */
(PID.TID 0000.0001)                 1.133351140939980E+02,      /* I =  9 */
(PID.TID 0000.0001)                 1.266687109732144E+02,      /* I = 10 */
(PID.TID 0000.0001)                 1.400023213645768E+02,      /* I = 11 */
(PID.TID 0000.0001)                 1.533359459608528E+02,      /* I = 12 */
(PID.TID 0000.0001)                 1.666695854903276E+02,      /* I = 13 */
(PID.TID 0000.0001)                 1.800032407186246E+02,      /* I = 14 */
(PID.TID 0000.0001)                 1.933369124506199E+02,      /* I = 15 */
(PID.TID 0000.0001)                 2.066706015324539E+02,      /* I = 16 */
(PID.TID 0000.0001)                 2.200043088536476E+02,      /* I = 17 */
(PID.TID 0000.0001)                 2.333380353493260E+02,      /* I = 18 */
(PID.TID 0000.0001)                 2.466717820025564E+02,      /* I = 19 */
(PID.TID 0000.0001)                 2.600055498468055E+02,      /* I = 20 */
(PID.TID 0000.0001)                 2.733393399685237E+02,      /* I = 21 */
(PID.TID 0000.0001)                 2.866731535098613E+02,      /* I = 22 */
(PID.TID 0000.0001)                 3.000069916715234E+02,      /* I = 23 */
(PID.TID 0000.0001)                 3.133408557157719E+02,      /* I = 24 */
(PID.TID 0000.0001)                 3.266747469695813E+02,      /* I = 25 */
(PID.TID 0000.0001)                 3.400086668279556E+02,      /* I = 26 */
(PID.TID 0000.0001)                 3.533426167574160E+02,      /* I = 27 */
(PID.TID 0000.0001)                 3.666765982996669E+02,      /* I = 28 */
(PID.TID 0000.0001)                 3.800106130754499E+02,      /* I = 29 */
(PID.TID 0000.0001)                 3.933446627885953E+02,      /* I = 30 */
(PID.TID 0000.0001)                 4.066787492302811E+02,      /* I = 31 */
(PID.TID 0000.0001)                 4.200128742835107E+02,      /* I = 32 */
(PID.TID 0000.0001)                 4.333470399278197E+02,      /* I = 33 */
(PID.TID 0000.0001)                 4.466812482442238E+02,      /* I = 34 */
(PID.TID 0000.0001)                 4.600155014204209E+02,      /* I = 35 */
(PID.TID 0000.0001)                 4.733498017562588E+02,      /* I = 36 */
(PID.TID 0000.0001)                 4.866841516694841E+02,      /* I = 37 */
(PID.TID 0000.0001)                 5.000185537017849E+02,      /* I = 38 */
(PID.TID 0000.0001)                 5.133530105251435E+02,      /* I = 39 */
(PID.TID 0000.0001)                 5.266875249485147E+02,      /* I = 40 */
(PID.TID 0000.0001)                 5.400220999248456E+02,      /* I = 41 */
(PID.TID 0000.0001)                 5.533567385584563E+02,      /* I = 42 */
[...]
(PID.TID 0000.0001) // =======================================================
(PID.TID 0000.0001) // End MONITOR dynamic field statistics
(PID.TID 0000.0001) // =======================================================
 cg2d: Sum(rhs),rhsMax =   2.82704817772093E-02  4.32774952064191E-04
(PID.TID 0000.0001)                    cg2d_init_res =    3.88483585756301E-03
(PID.TID 0000.0001)                       cg2d_iters =   188
(PID.TID 0000.0001)                         cg2d_res =    7.04609516789813E-14
 cg3d: Sum(rhs),rhsMax =  -4.39925873507718E-15  9.26751027106603E-06
(PID.TID 0000.0001)                    cg3d_init_res =    3.84531863772776E-02
(PID.TID 0000.0001)                       cg3d_iters =    20
(PID.TID 0000.0001)                         cg3d_res =    1.04046921823295E-04
(PID.TID 0000.0001) // =======================================================
(PID.TID 0000.0001) // Begin MONITOR dynamic field statistics
(PID.TID 0000.0001) // =======================================================
(PID.TID 0000.0001) %MON time_tsnumber                =                    18
(PID.TID 0000.0001) %MON time_secondsf                =   3.6000000000000E+02
(PID.TID 0000.0001) %MON dynstat_eta_max              =   1.4527115068559E-05
(PID.TID 0000.0001) %MON dynstat_eta_min              =  -3.1242011305412E-05
(PID.TID 0000.0001) %MON dynstat_eta_mean             =  -9.9650552269693E-06
(PID.TID 0000.0001) %MON dynstat_eta_sd               =   7.6059836747470E-06
(PID.TID 0000.0001) %MON dynstat_eta_del2             =   3.0663192805407E-06
(PID.TID 0000.0001) %MON dynstat_uvel_max             =   1.7433148185460E-03
(PID.TID 0000.0001) %MON dynstat_uvel_min             =  -1.7201419703830E-03
(PID.TID 0000.0001) %MON dynstat_uvel_mean            =   1.7223609069325E-06
(PID.TID 0000.0001) %MON dynstat_uvel_sd              =   3.7535324524553E-04
(PID.TID 0000.0001) %MON dynstat_uvel_del2            =   2.2414226621302E-04
(PID.TID 0000.0001) %MON dynstat_vvel_max             =   0.0000000000000E+00
(PID.TID 0000.0001) %MON dynstat_vvel_min             =   0.0000000000000E+00
(PID.TID 0000.0001) %MON dynstat_vvel_mean            =   0.0000000000000E+00
(PID.TID 0000.0001) %MON dynstat_vvel_sd              =   0.0000000000000E+00
(PID.TID 0000.0001) %MON dynstat_vvel_del2            =   0.0000000000000E+00
(PID.TID 0000.0001) %MON dynstat_wvel_max             =   1.4747088957139E-03
(PID.TID 0000.0001) %MON dynstat_wvel_min             =  -1.5807792862081E-03
(PID.TID 0000.0001) %MON dynstat_wvel_mean            =  -2.3984460260233E-08
(PID.TID 0000.0001) %MON dynstat_wvel_sd              =   3.4235701329651E-04
(PID.TID 0000.0001) %MON dynstat_wvel_del2            =   2.0934389896082E-04
(PID.TID 0000.0001) %MON dynstat_theta_max            =   9.9959334457486E-03
(PID.TID 0000.0001) %MON dynstat_theta_min            =  -4.8311305736942E-03
(PID.TID 0000.0001) %MON dynstat_theta_mean           =   5.0548891732141E-03
(PID.TID 0000.0001) %MON dynstat_theta_sd             =   2.8578306294361E-03
(PID.TID 0000.0001) %MON dynstat_theta_del2           =   1.4245153353536E-03
(PID.TID 0000.0001) %MON dynstat_salt_max             =   3.5000000000000E+01
(PID.TID 0000.0001) %MON dynstat_salt_min             =   3.5000000000000E+01
(PID.TID 0000.0001) %MON dynstat_salt_mean            =   3.5000000000000E+01
(PID.TID 0000.0001) %MON dynstat_salt_sd              =   1.4210854715202E-14
(PID.TID 0000.0001) %MON dynstat_salt_del2            =   0.0000000000000E+00
(PID.TID 0000.0001) %MON advcfl_uvel_max              =   2.5800436434863E-03
(PID.TID 0000.0001) %MON advcfl_vvel_max              =   0.0000000000000E+00
(PID.TID 0000.0001) %MON advcfl_wvel_max              =   9.4846757172485E-03
(PID.TID 0000.0001) %MON advcfl_W_hf_max              =   9.4846757172485E-03
(PID.TID 0000.0001) %MON ke_max                       =   9.1046353419660E-07
(PID.TID 0000.0001) %MON ke_mean                      =   8.1135309223446E-08
(PID.TID 0000.0001) %MON ke_volint                    =   1.4198168839936E+01
(PID.TID 0000.0001) %MON ke_volmean                   =   7.0076856495503E-08
(PID.TID 0000.0001) %MON ke_vol                       =   2.0260852940581E+08
(PID.TID 0000.0001) // =======================================================
(PID.TID 0000.0001) // End MONITOR dynamic field statistics
(PID.TID 0000.0001) // =======================================================
 cg2d: Sum(rhs),rhsMax =   3.36424220787338E-02  4.32558814788702E-04
(PID.TID 0000.0001)                    cg2d_init_res =    4.11938979765768E-03
(PID.TID 0000.0001)                       cg2d_iters =   188
(PID.TID 0000.0001)                         cg2d_res =    7.53968242868249E-14
 cg3d: Sum(rhs),rhsMax =  -1.13298259662997E-13  9.24975717040379E-06
(PID.TID 0000.0001)                    cg3d_init_res =    4.05235294429818E-02
(PID.TID 0000.0001)                       cg3d_iters =    20
(PID.TID 0000.0001)                         cg3d_res =    1.95366688012866E-04
(PID.TID 0000.0001) // =======================================================
(PID.TID 0000.0001) // Begin MONITOR dynamic field statistics
(PID.TID 0000.0001) // =======================================================
(PID.TID 0000.0001) %MON time_tsnumber                =                    19
(PID.TID 0000.0001) %MON time_secondsf                =   3.8000000000000E+02
(PID.TID 0000.0001) %MON dynstat_eta_max              =   1.2687928317208E-05
(PID.TID 0000.0001) %MON dynstat_eta_min              =  -3.3104494206190E-05
(PID.TID 0000.0001) %MON dynstat_eta_mean             =  -1.1852686704981E-05
(PID.TID 0000.0001) %MON dynstat_eta_sd               =   7.6251052659852E-06
(PID.TID 0000.0001) %MON dynstat_eta_del2             =   3.0679402027764E-06
(PID.TID 0000.0001) %MON dynstat_uvel_max             =   1.8371926733988E-03
(PID.TID 0000.0001) %MON dynstat_uvel_min             =  -1.8051845134627E-03
(PID.TID 0000.0001) %MON dynstat_uvel_mean            =   1.9543714952485E-06
(PID.TID 0000.0001) %MON dynstat_uvel_sd              =   3.9568594962253E-04
(PID.TID 0000.0001) %MON dynstat_uvel_del2            =   2.3612068480857E-04
(PID.TID 0000.0001) %MON dynstat_vvel_max             =   0.0000000000000E+00
(PID.TID 0000.0001) %MON dynstat_vvel_min             =   0.0000000000000E+00
(PID.TID 0000.0001) %MON dynstat_vvel_mean            =   0.0000000000000E+00
(PID.TID 0000.0001) %MON dynstat_vvel_sd              =   0.0000000000000E+00
(PID.TID 0000.0001) %MON dynstat_vvel_del2            =   0.0000000000000E+00
(PID.TID 0000.0001) %MON dynstat_wvel_max             =   1.5588335325622E-03
(PID.TID 0000.0001) %MON dynstat_wvel_min             =  -1.6714103013920E-03
(PID.TID 0000.0001) %MON dynstat_wvel_mean            =  -2.7180003024704E-08
(PID.TID 0000.0001) %MON dynstat_wvel_sd              =   3.6210730419337E-04
(PID.TID 0000.0001) %MON dynstat_wvel_del2            =   2.2132535016213E-04
(PID.TID 0000.0001) %MON dynstat_theta_max            =   9.9956931950995E-03
(PID.TID 0000.0001) %MON dynstat_theta_min            =  -5.1265830286740E-03
(PID.TID 0000.0001) %MON dynstat_theta_mean           =   5.0542155170940E-03
(PID.TID 0000.0001) %MON dynstat_theta_sd             =   2.8550518381296E-03
(PID.TID 0000.0001) %MON dynstat_theta_del2           =   1.4219980533606E-03
(PID.TID 0000.0001) %MON dynstat_salt_max             =   3.5000000000000E+01
(PID.TID 0000.0001) %MON dynstat_salt_min             =   3.5000000000000E+01
(PID.TID 0000.0001) %MON dynstat_salt_mean            =   3.5000000000000E+01
(PID.TID 0000.0001) %MON dynstat_salt_sd              =   1.4210854715202E-14
(PID.TID 0000.0001) %MON dynstat_salt_del2            =   0.0000000000000E+00
(PID.TID 0000.0001) %MON advcfl_uvel_max              =   2.7081505190971E-03
(PID.TID 0000.0001) %MON advcfl_vvel_max              =   0.0000000000000E+00
(PID.TID 0000.0001) %MON advcfl_wvel_max              =   1.0028461808352E-02
(PID.TID 0000.0001) %MON advcfl_W_hf_max              =   1.0028461808352E-02
(PID.TID 0000.0001) %MON ke_max                       =   1.0082039204531E-06
(PID.TID 0000.0001) %MON ke_mean                      =   9.0087816885791E-08
(PID.TID 0000.0001) %MON ke_volint                    =   1.5778099671436E+01
(PID.TID 0000.0001) %MON ke_volmean                   =   7.7874804766157E-08
(PID.TID 0000.0001) %MON ke_vol                       =   2.0260852940581E+08
(PID.TID 0000.0001) // =======================================================
(PID.TID 0000.0001) // End MONITOR dynamic field statistics
(PID.TID 0000.0001) // =======================================================
 cg2d: Sum(rhs),rhsMax =   3.96182947658130E-02  4.32329652765610E-04
(PID.TID 0000.0001)                    cg2d_init_res =    4.34798081803902E-03
(PID.TID 0000.0001)                       cg2d_iters =   188
(PID.TID 0000.0001)                         cg2d_res =    7.77264654870592E-14
 cg3d: Sum(rhs),rhsMax =  -5.66768854071142E-14  9.23109889175391E-06
(PID.TID 0000.0001)                    cg3d_init_res =    4.25856847631843E-02
(PID.TID 0000.0001)                       cg3d_iters =    20
(PID.TID 0000.0001)                         cg3d_res =    1.32373202142934E-04
(PID.TID 0000.0001) // =======================================================
(PID.TID 0000.0001) // Begin MONITOR dynamic field statistics
(PID.TID 0000.0001) // =======================================================
(PID.TID 0000.0001) %MON time_tsnumber                =                    20
(PID.TID 0000.0001) %MON time_secondsf                =   4.0000000000000E+02
(PID.TID 0000.0001) %MON dynstat_eta_max              =   1.0639606651460E-05
(PID.TID 0000.0001) %MON dynstat_eta_min              =  -3.5150726597744E-05
(PID.TID 0000.0001) %MON dynstat_eta_mean             =  -1.3950673873564E-05
(PID.TID 0000.0001) %MON dynstat_eta_sd               =   7.6491144672095E-06
(PID.TID 0000.0001) %MON dynstat_eta_del2             =   3.0697626944732E-06
(PID.TID 0000.0001) %MON dynstat_uvel_max             =   1.9307312178026E-03
(PID.TID 0000.0001) %MON dynstat_uvel_min             =  -1.8892294022006E-03
(PID.TID 0000.0001) %MON dynstat_uvel_mean            =   2.1862436537056E-06
(PID.TID 0000.0001) %MON dynstat_uvel_sd              =   4.1596196907308E-04
(PID.TID 0000.0001) %MON dynstat_uvel_del2            =   2.4804776624007E-04
(PID.TID 0000.0001) %MON dynstat_vvel_max             =   0.0000000000000E+00
(PID.TID 0000.0001) %MON dynstat_vvel_min             =   0.0000000000000E+00
(PID.TID 0000.0001) %MON dynstat_vvel_mean            =   0.0000000000000E+00
(PID.TID 0000.0001) %MON dynstat_vvel_sd              =   0.0000000000000E+00
(PID.TID 0000.0001) %MON dynstat_vvel_del2            =   0.0000000000000E+00
(PID.TID 0000.0001) %MON dynstat_wvel_max             =   1.6426270150108E-03
(PID.TID 0000.0001) %MON dynstat_wvel_min             =  -1.7617579677184E-03
(PID.TID 0000.0001) %MON dynstat_wvel_mean            =  -3.0610239117018E-08
(PID.TID 0000.0001) %MON dynstat_wvel_sd              =   3.8181240786336E-04
(PID.TID 0000.0001) %MON dynstat_wvel_del2            =   2.3326807262811E-04
(PID.TID 0000.0001) %MON dynstat_theta_max            =   9.9954412346595E-03
(PID.TID 0000.0001) %MON dynstat_theta_min            =  -5.4217620477516E-03
(PID.TID 0000.0001) %MON dynstat_theta_mean           =   5.0535417158145E-03
(PID.TID 0000.0001) %MON dynstat_theta_sd             =   2.8521478109659E-03
(PID.TID 0000.0001) %MON dynstat_theta_del2           =   1.4193589412038E-03
(PID.TID 0000.0001) %MON dynstat_salt_max             =   3.5000000000000E+01
(PID.TID 0000.0001) %MON dynstat_salt_min             =   3.5000000000000E+01
(PID.TID 0000.0001) %MON dynstat_salt_mean            =   3.5000000000000E+01
(PID.TID 0000.0001) %MON dynstat_salt_sd              =   1.4210854715202E-14
(PID.TID 0000.0001) %MON dynstat_salt_del2            =   0.0000000000000E+00
(PID.TID 0000.0001) %MON advcfl_uvel_max              =   2.8460328769197E-03
(PID.TID 0000.0001) %MON advcfl_vvel_max              =   0.0000000000000E+00
(PID.TID 0000.0001) %MON advcfl_wvel_max              =   1.0570547806310E-02
(PID.TID 0000.0001) %MON advcfl_W_hf_max              =   1.0570547806310E-02
(PID.TID 0000.0001) %MON ke_max                       =   1.1101168609693E-06
(PID.TID 0000.0001) %MON ke_mean                      =   9.9473970123182E-08
(PID.TID 0000.0001) %MON ke_volint                    =   1.7436611435172E+01
(PID.TID 0000.0001) %MON ke_volmean                   =   8.6060599157933E-08
(PID.TID 0000.0001) %MON ke_vol                       =   2.0260852940581E+08
(PID.TID 0000.0001) // =======================================================
(PID.TID 0000.0001) // End MONITOR dynamic field statistics
(PID.TID 0000.0001) // =======================================================
(PID.TID 0000.0001)   Seconds in section "ALL                [THE_MODEL_MAIN]":
(PID.TID 0000.0001)           User time:  58.4600012
(PID.TID 0000.0001)         System time:  0.569999993
(PID.TID 0000.0001)     Wall clock time:  59.625653
(PID.TID 0000.0001)          No. starts: 1
(PID.TID 0000.0001)           No. stops: 1
(PID.TID 0000.0001)   Seconds in section "INITIALISE_FIXED   [THE_MODEL_MAIN]":
(PID.TID 0000.0001)           User time:  0.73000001
(PID.TID 0000.0001)         System time:  0.0799999982
(PID.TID 0000.0001)     Wall clock time:  0.840109944
(PID.TID 0000.0001)          No. starts: 1
(PID.TID 0000.0001)           No. stops: 1
(PID.TID 0000.0001)   Seconds in section "THE_MAIN_LOOP      [THE_MODEL_MAIN]":
(PID.TID 0000.0001)           User time:  56.8799989
(PID.TID 0000.0001)         System time:  0.309999987
(PID.TID 0000.0001)     Wall clock time:  57.2966239
(PID.TID 0000.0001)          No. starts: 1
(PID.TID 0000.0001)           No. stops: 1
(PID.TID 0000.0001)   Seconds in section "INITIALISE_VARIA    [THE_MAIN_LOOP]":
(PID.TID 0000.0001)           User time:  0.299999952
(PID.TID 0000.0001)         System time:  0.150000006
(PID.TID 0000.0001)     Wall clock time:  0.459943056
(PID.TID 0000.0001)          No. starts: 1
(PID.TID 0000.0001)           No. stops: 1
(PID.TID 0000.0001)   Seconds in section "WRITE_STATE         [THE_MAIN_LOOP]":
(PID.TID 0000.0001)           User time:  0.0199999809
(PID.TID 0000.0001)         System time:  0.0199999958
(PID.TID 0000.0001)     Wall clock time:  0.0806689262
(PID.TID 0000.0001)          No. starts: 1
(PID.TID 0000.0001)           No. stops: 1
(PID.TID 0000.0001)   Seconds in section "MONITOR             [THE_MAIN_LOOP]":
(PID.TID 0000.0001)           User time:  0.060000062
(PID.TID 0000.0001)         System time:  0.
(PID.TID 0000.0001)     Wall clock time:  0.0581229925
(PID.TID 0000.0001)          No. starts: 1
(PID.TID 0000.0001)           No. stops: 1
(PID.TID 0000.0001)   Seconds in section "MAIN LOOP           [THE_MAIN_LOOP]":
(PID.TID 0000.0001)           User time:  56.4999989
(PID.TID 0000.0001)         System time:  0.139999986
(PID.TID 0000.0001)     Wall clock time:  56.6974089
(PID.TID 0000.0001)          No. starts: 1
(PID.TID 0000.0001)           No. stops: 1
(PID.TID 0000.0001)   Seconds in section "FORWARD_STEP        [THE_MAIN_LOOP]":
(PID.TID 0000.0001)           User time:  56.4999989
(PID.TID 0000.0001)         System time:  0.139999986
(PID.TID 0000.0001)     Wall clock time:  56.695845
(PID.TID 0000.0001)          No. starts: 20
(PID.TID 0000.0001)           No. stops: 20
(PID.TID 0000.0001)   Seconds in section "EXTERNAL_FIELDS_LOAD[THE_MAIN_LOOP]":
(PID.TID 0000.0001)           User time:  0.
(PID.TID 0000.0001)         System time:  0.
(PID.TID 0000.0001)     Wall clock time:  0.00142335892
(PID.TID 0000.0001)          No. starts: 20
(PID.TID 0000.0001)           No. stops: 20
(PID.TID 0000.0001)   Seconds in section "THERMODYNAMICS      [THE_MAIN_LOOP]":
(PID.TID 0000.0001)           User time:  17.2200009
(PID.TID 0000.0001)         System time:  0.0600000024
(PID.TID 0000.0001)     Wall clock time:  17.2671843
(PID.TID 0000.0001)          No. starts: 20
(PID.TID 0000.0001)           No. stops: 20
(PID.TID 0000.0001)   Seconds in section "DYNAMICS            [THE_MAIN_LOOP]":
(PID.TID 0000.0001)           User time:  16.1400077
(PID.TID 0000.0001)         System time:  0.0699999928
(PID.TID 0000.0001)     Wall clock time:  16.2138435
(PID.TID 0000.0001)          No. starts: 20
(PID.TID 0000.0001)           No. stops: 20
(PID.TID 0000.0001)   Seconds in section "CALC_GW          [THE_MAIN_LOOP]":
(PID.TID 0000.0001)           User time:  0.84999752
(PID.TID 0000.0001)         System time:  0.
(PID.TID 0000.0001)     Wall clock time:  0.856591225
(PID.TID 0000.0001)          No. starts: 20
(PID.TID 0000.0001)           No. stops: 20
(PID.TID 0000.0001)   Seconds in section "SOLVE_FOR_PRESSURE  [THE_MAIN_LOOP]":
(PID.TID 0000.0001)           User time:  17.8200009
(PID.TID 0000.0001)         System time:  0.00999999046
(PID.TID 0000.0001)     Wall clock time:  17.8509939
(PID.TID 0000.0001)          No. starts: 20
(PID.TID 0000.0001)           No. stops: 20
(PID.TID 0000.0001)   Seconds in section "THE_CORRECTION_STEP [THE_MAIN_LOOP]":
(PID.TID 0000.0001)           User time:  1.11999559
(PID.TID 0000.0001)         System time:  0.
(PID.TID 0000.0001)     Wall clock time:  1.09359097
(PID.TID 0000.0001)          No. starts: 20
(PID.TID 0000.0001)           No. stops: 20
(PID.TID 0000.0001)   Seconds in section "BLOCKING_EXCHANGES  [THE_MAIN_LOOP]":
(PID.TID 0000.0001)           User time:  1.98000145
(PID.TID 0000.0001)         System time:  0.
(PID.TID 0000.0001)     Wall clock time:  1.97531486
(PID.TID 0000.0001)          No. starts: 20
(PID.TID 0000.0001)           No. stops: 20
(PID.TID 0000.0001)   Seconds in section "DO_THE_MODEL_IO     [THE_MAIN_LOOP]":
(PID.TID 0000.0001)           User time:  0.0299987793
(PID.TID 0000.0001)         System time:  0.
(PID.TID 0000.0001)     Wall clock time:  0.091873765
(PID.TID 0000.0001)          No. starts: 20
(PID.TID 0000.0001)           No. stops: 20
(PID.TID 0000.0001)   Seconds in section "WRITE_CHECKPOINT    [THE_MAIN_LOOP]":
(PID.TID 0000.0001)           User time:  0.0100002289
(PID.TID 0000.0001)         System time:  0.
(PID.TID 0000.0001)     Wall clock time:  0.00146389008
(PID.TID 0000.0001)          No. starts: 20
(PID.TID 0000.0001)           No. stops: 20
(PID.TID 0000.0001)   Seconds in section "WRITE_CHECKPOINT   [THE_MODEL_MAIN]":
(PID.TID 0000.0001)           User time:  0.850002289
(PID.TID 0000.0001)         System time:  0.180000007
(PID.TID 0000.0001)     Wall clock time:  1.48853302
(PID.TID 0000.0001)          No. starts: 1
(PID.TID 0000.0001)           No. stops: 1
(PID.TID 0000.0001) // ======================================================
(PID.TID 0000.0001) // Tile <-> Tile communication statistics
(PID.TID 0000.0001) // ======================================================
(PID.TID 0000.0001) // o Tile number: 000001
(PID.TID 0000.0001) //         No. X exchanges =              0
(PID.TID 0000.0001) //            Max. X spins =              0
(PID.TID 0000.0001) //            Min. X spins =     1000000000
(PID.TID 0000.0001) //          Total. X spins =              0
(PID.TID 0000.0001) //            Avg. X spins =       0.00E+00
(PID.TID 0000.0001) //         No. Y exchanges =              0
(PID.TID 0000.0001) //            Max. Y spins =              0
(PID.TID 0000.0001) //            Min. Y spins =     1000000000
(PID.TID 0000.0001) //          Total. Y spins =              0
(PID.TID 0000.0001) //            Avg. Y spins =       0.00E+00
(PID.TID 0000.0001) // o Thread number: 000001
(PID.TID 0000.0001) //            No. barriers =          55764
(PID.TID 0000.0001) //      Max. barrier spins =              1
(PID.TID 0000.0001) //      Min. barrier spins =              1
(PID.TID 0000.0001) //     Total barrier spins =          55764
(PID.TID 0000.0001) //      Avg. barrier spins =       1.00E+00
