(PID.TID 0000.0001) 
(PID.TID 0000.0001) // ======================================================
(PID.TID 0000.0001) //                      MITgcm UV
(PID.TID 0000.0001) //                      =========
(PID.TID 0000.0001) // ======================================================
(PID.TID 0000.0001) // execution environment starting up...
(PID.TID 0000.0001) // Run starting Wed Apr  1 14:19:48 1998
(PID.TID 0000.0001) // on melville.lcs.mit.edu
(PID.TID 0000.0001) // account cnh
(PID.TID 0000.0001) // MITgcm UV Release: $Name:  $
(PID.TID 0000.0001) 
(PID.TID 0000.0001) // =======================================================
(PID.TID 0000.0001) // Execution Environment parameter file "eedata"
(PID.TID 0000.0001) // =======================================================
(PID.TID 0000.0001) ># Example "eedata" file
(PID.TID 0000.0001) ># Lines beginning "#" are comments
(PID.TID 0000.0001) ># nTx - No. threads per process in X
(PID.TID 0000.0001) ># nTy - No. threads per process in Y
(PID.TID 0000.0001) > &EEPARMS
(PID.TID 0000.0001) > &
(PID.TID 0000.0001) ># Note: Some systems use & as the
(PID.TID 0000.0001) ># namelist terminator. Other systems
(PID.TID 0000.0001) ># use a / character (as shown here).
(PID.TID 0000.0001) 
(PID.TID 0000.0001) // =======================================================
(PID.TID 0000.0001) // Computational Grid Specification ( see files "SIZE.h" )
(PID.TID 0000.0001) //                                  ( and "eedata"       )
(PID.TID 0000.0001) // =======================================================
(PID.TID 0000.0001)      nPx =    1 ; /* No. processes in X */
(PID.TID 0000.0001)      nPy =    1 ; /* No. processes in Y */
(PID.TID 0000.0001)      nSx =    1 ; /* No. tiles in X per process */
(PID.TID 0000.0001)      nSy =    1 ; /* No. tiles in Y per process */
(PID.TID 0000.0001)      sNx =  128 ; /* Tile size in X */
(PID.TID 0000.0001)      sNy =   64 ; /* Tile size in Y */
(PID.TID 0000.0001)      OLx =    5 ; /* Tile overlap distance in X */
(PID.TID 0000.0001)      OLy =    5 ; /* Tile overlap distance in Y */
(PID.TID 0000.0001)      nTx =    1 ; /* No. threads in X per process */
(PID.TID 0000.0001)      nTy =    1 ; /* No. threads in Y per process */
(PID.TID 0000.0001)       Nr =    5 ; /* No. levels in the vertical   */
(PID.TID 0000.0001)       nX =  128 ; /* Total domain size in X ( = nPx*nSx*sNx ) */
(PID.TID 0000.0001)       nY =   64 ; /* Total domain size in Y ( = nPy*nSy*sNy ) */
(PID.TID 0000.0001)   nTiles =    1 ; /* Total no. tiles per process ( = nSx*nSy ) */
(PID.TID 0000.0001)   nProcs =    1 ; /* Total no. processes ( = nPx*nPy ) */
(PID.TID 0000.0001) nThreads =    1 ; /* Total no. threads per process ( = nTx*nTy ) */
(PID.TID 0000.0001) usingMPI =    F ; /* Flag used to control whether MPI is in use */
(PID.TID 0000.0001)                   /*  note: To execute a program with MPI calls */
(PID.TID 0000.0001)                   /*  it must be launched appropriately e.g     */
(PID.TID 0000.0001)                   /*  "mpirun -np 64 ......"                    */
(PID.TID 0000.0001) 
(PID.TID 0000.0001) // ======================================================
(PID.TID 0000.0001) // Mapping of tiles to threads
(PID.TID 0000.0001) // ======================================================
(PID.TID 0000.0001) // -o- Thread   1, tiles (   1:   1,   1:   1)
(PID.TID 0000.0001) 
(PID.TID 0000.0001) // ======================================================
(PID.TID 0000.0001) // Tile <-> Tile connectvity table
(PID.TID 0000.0001) // ======================================================
(PID.TID 0000.0001) // Tile number: 000001 (process no. = 000001)
(PID.TID 0000.0001) //        WEST: Tile = 000001, Process = 000001, Comm = put
(PID.TID 0000.0001) //                bi = 000001, bj = 000001
(PID.TID 0000.0001) //        EAST: Tile = 000001, Process = 000001, Comm = put
(PID.TID 0000.0001) //                bi = 000001, bj = 000001
(PID.TID 0000.0001) //       SOUTH: Tile = 000001, Process = 000001, Comm = put
(PID.TID 0000.0001) //                bi = 000001, bj = 000001
(PID.TID 0000.0001) //       NORTH: Tile = 000001, Process = 000001, Comm = put
(PID.TID 0000.0001) //                bi = 000001, bj = 000001
(PID.TID 0000.0001) 
(PID.TID 0000.0001) // =======================================================
(PID.TID 0000.0001) // Model parameter file "data"
(PID.TID 0000.0001) // =======================================================
(PID.TID 0000.0001) ># ====================
(PID.TID 0000.0001) ># | Model parameters |
(PID.TID 0000.0001) ># ====================
(PID.TID 0000.0001) >#
(PID.TID 0000.0001) ># Continuous equation parameters
(PID.TID 0000.0001) > &PARM01
(PID.TID 0000.0001) > tRef=281.089, 289.321, 307.191, 331.377, 432.413,
(PID.TID 0000.0001) > sRef=5*0.,
(PID.TID 0000.0001) > viscAr=0.E1,
(PID.TID 0000.0001) > viscAh=0.E6,
(PID.TID 0000.0001) > viscA4=0.E17,
(PID.TID 0000.0001) > no_slip_sides=.FALSE.,
(PID.TID 0000.0001) > no_slip_bottom=.FALSE.,
(PID.TID 0000.0001) > diffKhT=0.E3,
(PID.TID 0000.0001) > diffKrT=0.,
(PID.TID 0000.0001) > diffK4T=0.E17,
(PID.TID 0000.0001) > diffKrS=0.E2,
(PID.TID 0000.0001) > diffKhS=0.E3,
(PID.TID 0000.0001) > diffK4S=0.E17,
(PID.TID 0000.0001) > buoyancyRelation='ATMOSPHERIC',
(PID.TID 0000.0001) > eosType='IDEALGAS',
(PID.TID 0000.0001) > gravity=9.81,
(PID.TID 0000.0001) > gBaro=9.81,
(PID.TID 0000.0001) > rhonil=1.0,
(PID.TID 0000.0001) > rhoConst=1.0,
(PID.TID 0000.0001) > rigidLid=.FALSE.,
(PID.TID 0000.0001) > implicitFreeSurface=.TRUE.,
(PID.TID 0000.0001) > staggerTimeStep=.TRUE.,
(PID.TID 0000.0001) > nonHydrostatic=.FALSE.,
(PID.TID 0000.0001) > readBinaryPrec=64,
(PID.TID 0000.0001) > writeBinaryPrec=64,
(PID.TID 0000.0001) > hFacMin=1.0,
(PID.TID 0000.0001) > zonal_filt_lat=45.0,
(PID.TID 0000.0001) > zonal_filt_sinpow=2,
(PID.TID 0000.0001) > zonal_filt_cospow=2,
(PID.TID 0000.0001) > &
(PID.TID 0000.0001) >
(PID.TID 0000.0001) ># Elliptic solver parameters
(PID.TID 0000.0001) > &PARM02
(PID.TID 0000.0001) > cg2dMaxIters=200,
(PID.TID 0000.0001) > cg2dTargetResidual=1.E-12,
(PID.TID 0000.0001) > &
(PID.TID 0000.0001) >
(PID.TID 0000.0001) ># Time stepping parameters
(PID.TID 0000.0001) > &PARM03
(PID.TID 0000.0001) > niter0=0,
(PID.TID 0000.0001) > nTimeSteps=10,
(PID.TID 0000.0001) > deltaT=450.0,
(PID.TID 0000.0001) > abEps=0.1,
(PID.TID 0000.0001) > cAdjFreq=0.,
(PID.TID 0000.0001) > pChkptFreq=2592000.0,
(PID.TID 0000.0001) > chkptFreq=0.0,
(PID.TID 0000.0001) > dumpFreq=2592000.0,
(PID.TID 0000.0001) > monitorFreq=1.,
(PID.TID 0000.0001) > &
(PID.TID 0000.0001) >
(PID.TID 0000.0001) ># Gridding parameters
(PID.TID 0000.0001) > &PARM04
(PID.TID 0000.0001) > usingCartesianGrid=.FALSE.,
(PID.TID 0000.0001) > usingSphericalPolarGrid=.TRUE.,
(PID.TID 0000.0001) > delX=128*2.8125,
(PID.TID 0000.0001) > delY=64*2.8125,
(PID.TID 0000.0001) > delR=1.E4, 2.5E4, 3.E4, 2.E4, 1.5E4,
(PID.TID 0000.0001) > Ro_SeaLevel=1.E5,
(PID.TID 0000.0001) > groundAtK1=.TRUE.,
(PID.TID 0000.0001) > phiMin=-90.,
(PID.TID 0000.0001) > rSphere=6370.E3,
(PID.TID 0000.0001) > &
(PID.TID 0000.0001) >
(PID.TID 0000.0001) ># Input datasets
(PID.TID 0000.0001) > &PARM05
(PID.TID 0000.0001) > &
(PID.TID 0000.0001) 
(PID.TID 0000.0001) %MON XC_max                       =   3.5859375000000E+02
(PID.TID 0000.0001) %MON XC_min                       =   1.4062500000000E+00
(PID.TID 0000.0001) %MON XC_mean                      =   1.8000000000000E+02
(PID.TID 0000.0001) %MON XC_sd                        =   1.0391987692599E+02
(PID.TID 0000.0001) %MON XG_max                       =   3.5718750000000E+02
(PID.TID 0000.0001) %MON XG_min                       =   2.8125000000000E+00
(PID.TID 0000.0001) %MON XG_mean                      =   1.8000000000000E+02
(PID.TID 0000.0001) %MON XG_sd                        =   1.0310795313651E+02
(PID.TID 0000.0001) %MON DXC_max                      =   3.1259246843155E+05
(PID.TID 0000.0001) %MON DXC_min                      =   7.6737143816223E+03
(PID.TID 0000.0001) %MON DXC_mean                     =   1.9908248704234E+05
(PID.TID 0000.0001) %MON DXC_sd                       =   9.6190602240068E+04
(PID.TID 0000.0001) %MON DXF_max                      =   3.1259246843155E+05
(PID.TID 0000.0001) %MON DXF_min                      =   7.6737143816223E+03
(PID.TID 0000.0001) %MON DXF_mean                     =   1.9908248704234E+05
(PID.TID 0000.0001) %MON DXF_sd                       =   9.6190602240068E+04
(PID.TID 0000.0001) %MON DXG_max                      =   3.1268664380261E+05
(PID.TID 0000.0001) %MON DXG_min                      =   1.5342806404640E+04
(PID.TID 0000.0001) %MON DXG_mean                     =   2.0218161485138E+05
(PID.TID 0000.0001) %MON DXG_sd                       =   9.3728538420912E+04
(PID.TID 0000.0001) %MON DXV_max                      =   3.1268664380261E+05
(PID.TID 0000.0001) %MON DXV_min                      =   1.5342806404640E+04
(PID.TID 0000.0001) %MON DXV_mean                     =   2.0218161485138E+05
(PID.TID 0000.0001) %MON DXV_sd                       =   9.3728538420912E+04
(PID.TID 0000.0001) %MON YC_max                       =   8.8593750000000E+01
(PID.TID 0000.0001) %MON YC_min                       =  -8.8593750000000E+01
(PID.TID 0000.0001) %MON YC_mean                      =   0.0000000000000E+00
(PID.TID 0000.0001) %MON YC_sd                        =   5.1955180880375E+01
(PID.TID 0000.0001) %MON YG_max                       =   8.7187500000000E+01
(PID.TID 0000.0001) %MON YG_min                       =  -9.0000000000000E+01
(PID.TID 0000.0001) %MON YG_mean                      =  -1.4285714285714E+00
(PID.TID 0000.0001) %MON YG_sd                        =   5.2365595692639E+01
(PID.TID 0000.0001) %MON DYC_max                      =   3.1268664380261E+05
(PID.TID 0000.0001) %MON DYC_min                      =   3.1268664380261E+05
(PID.TID 0000.0001) %MON DYC_mean                     =   3.1268664380263E+05
(PID.TID 0000.0001) %MON DYC_sd                       =   2.4156179279089E-08
(PID.TID 0000.0001) %MON DYF_max                      =   3.1268664380261E+05
(PID.TID 0000.0001) %MON DYF_min                      =   3.1268664380261E+05
(PID.TID 0000.0001) %MON DYF_mean                     =   3.1268664380263E+05
(PID.TID 0000.0001) %MON DYF_sd                       =   2.4156179279089E-08
(PID.TID 0000.0001) %MON DYG_max                      =   3.1268664380261E+05
(PID.TID 0000.0001) %MON DYG_min                      =   3.1268664380261E+05
(PID.TID 0000.0001) %MON DYG_mean                     =   3.1268664380263E+05
(PID.TID 0000.0001) %MON DYG_sd                       =   2.4156179279089E-08
(PID.TID 0000.0001) %MON DYU_max                      =   3.1268664380261E+05
(PID.TID 0000.0001) %MON DYU_min                      =   3.1268664380261E+05
(PID.TID 0000.0001) %MON DYU_mean                     =   3.1268664380263E+05
(PID.TID 0000.0001) %MON DYU_sd                       =   2.4156179279089E-08
(PID.TID 0000.0001) %MON RA_max                       =   9.7733676797555E+10
(PID.TID 0000.0001) %MON RA_min                       =   2.3992270990191E+09
(PID.TID 0000.0001) %MON RA_mean                      =   6.2244185031957E+10
(PID.TID 0000.0001) %MON RA_sd                        =   3.0074496923945E+10
(PID.TID 0000.0001) %MON RAW_max                      =   9.7733676797555E+10
(PID.TID 0000.0001) %MON RAW_min                      =   2.3992270990191E+09
(PID.TID 0000.0001) %MON RAW_mean                     =   6.2244185031957E+10
(PID.TID 0000.0001) %MON RAW_sd                       =   3.0074496923945E+10
(PID.TID 0000.0001) %MON RAS_max                      =   9.7763121221868E+10
(PID.TID 0000.0001) %MON RAS_min                      =   4.7970089933465E+09
(PID.TID 0000.0001) %MON RAS_mean                     =   6.3213143616158E+10
(PID.TID 0000.0001) %MON RAS_sd                       =   2.9304719741649E+10
(PID.TID 0000.0001) %MON RAZ_max                      =   9.7763121221868E+10
(PID.TID 0000.0001) %MON RAZ_min                      =   4.7970089933465E+09
(PID.TID 0000.0001) %MON RAZ_mean                     =   6.3213143616158E+10
(PID.TID 0000.0001) %MON RAZ_sd                       =   2.9304719741649E+10
(PID.TID 0000.0001) // =======================================================
(PID.TID 0000.0001) // Field Model R_low (ini_masks_etc) at iteration          1
(PID.TID 0000.0001) // CMIN =          1.000000000000000E+32
(PID.TID 0000.0001) // CMAX =         -1.000000000000000E+32
(PID.TID 0000.0001) // CINT =          0.000000000000000E+00
(PID.TID 0000.0001) // SYMBOLS (CMIN->CMAX): -abcdefghijklmnopqrstuvwxyz+
(PID.TID 0000.0001) //                  0.0: .
(PID.TID 0000.0001) // RANGE I (Lo:Hi:Step):(  -4: 133:   1)
(PID.TID 0000.0001) // RANGE J (Lo:Hi:Step):(  69:  -4:  -1)
(PID.TID 0000.0001) // RANGE K (Lo:Hi:Step):(   1:   1:   1)
(PID.TID 0000.0001) // =======================================================
(PID.TID 0000.0001) K =   1
(PID.TID 0000.0001) //                I=5       I=15      I=25      I=35      I=45      I=55      I=65      I=75      I=85      I=95      I=105     I=115     I=125
(PID.TID 0000.0001) // |--J--|****01234|678901234|678901234|678901234|678901234|678901234|678901234|678901234|678901234|678901234|678901234|678901234|678901234|67890123
(PID.TID 0000.0001) //     69 ..........................................................................................................................................
(PID.TID 0000.0001) //     68 ..........................................................................................................................................
(PID.TID 0000.0001) //     67 ..........................................................................................................................................
(PID.TID 0000.0001) //     66 ..........................................................................................................................................
(PID.TID 0000.0001) //     65 ..........................................................................................................................................
(PID.TID 0000.0001) //     64 ..........................................................................................................................................
(PID.TID 0000.0001) //     63 ..........................................................................................................................................
(PID.TID 0000.0001) //     62 ..........................................................................................................................................
(PID.TID 0000.0001) //     61 ..........................................................................................................................................
(PID.TID 0000.0001) //     60 ..........................................................................................................................................
(PID.TID 0000.0001) //     59 ..........................................................................................................................................
(PID.TID 0000.0001) //     58 ..........................................................................................................................................
(PID.TID 0000.0001) //     57 ..........................................................................................................................................
(PID.TID 0000.0001) //     56 ..........................................................................................................................................
(PID.TID 0000.0001) //     55 ..........................................................................................................................................
(PID.TID 0000.0001) //     54 ..........................................................................................................................................
(PID.TID 0000.0001) //     53 ..........................................................................................................................................
(PID.TID 0000.0001) //     52 ..........................................................................................................................................
(PID.TID 0000.0001) //     51 ..........................................................................................................................................
(PID.TID 0000.0001) //     50 ..........................................................................................................................................
(PID.TID 0000.0001) //     49 ..........................................................................................................................................
(PID.TID 0000.0001) //     48 ..........................................................................................................................................
(PID.TID 0000.0001) //     47 ..........................................................................................................................................
(PID.TID 0000.0001) //     46 ..........................................................................................................................................
(PID.TID 0000.0001) //     45 ..........................................................................................................................................
(PID.TID 0000.0001) //     44 ..........................................................................................................................................
(PID.TID 0000.0001) //     43 ..........................................................................................................................................
(PID.TID 0000.0001) //     42 ..........................................................................................................................................
(PID.TID 0000.0001) //     41 ..........................................................................................................................................
(PID.TID 0000.0001) //     40 ..........................................................................................................................................
(PID.TID 0000.0001) //     39 ..........................................................................................................................................
(PID.TID 0000.0001) //     38 ..........................................................................................................................................
(PID.TID 0000.0001) //     37 ..........................................................................................................................................
(PID.TID 0000.0001) //     36 ..........................................................................................................................................
(PID.TID 0000.0001) //     35 ..........................................................................................................................................
(PID.TID 0000.0001) //     34 ..........................................................................................................................................
(PID.TID 0000.0001) //     33 ..........................................................................................................................................
(PID.TID 0000.0001) //     32 ..........................................................................................................................................
(PID.TID 0000.0001) //     31 ..........................................................................................................................................
(PID.TID 0000.0001) //     30 ..........................................................................................................................................
(PID.TID 0000.0001) //     29 ..........................................................................................................................................
(PID.TID 0000.0001) //     28 ..........................................................................................................................................
(PID.TID 0000.0001) //     27 ..........................................................................................................................................
(PID.TID 0000.0001) //     26 ..........................................................................................................................................
(PID.TID 0000.0001) //     25 ..........................................................................................................................................
(PID.TID 0000.0001) //     24 ..........................................................................................................................................
(PID.TID 0000.0001) //     23 ..........................................................................................................................................
(PID.TID 0000.0001) //     22 ..........................................................................................................................................
(PID.TID 0000.0001) //     21 ..........................................................................................................................................
(PID.TID 0000.0001) //     20 ..........................................................................................................................................
(PID.TID 0000.0001) //     19 ..........................................................................................................................................
(PID.TID 0000.0001) //     18 ..........................................................................................................................................
(PID.TID 0000.0001) //     17 ..........................................................................................................................................
(PID.TID 0000.0001) //     16 ..........................................................................................................................................
(PID.TID 0000.0001) //     15 ..........................................................................................................................................
(PID.TID 0000.0001) //     14 ..........................................................................................................................................
(PID.TID 0000.0001) //     13 ..........................................................................................................................................
(PID.TID 0000.0001) //     12 ..........................................................................................................................................
(PID.TID 0000.0001) //     11 ..........................................................................................................................................
(PID.TID 0000.0001) //     10 ..........................................................................................................................................
(PID.TID 0000.0001) //      9 ..........................................................................................................................................
(PID.TID 0000.0001) //      8 ..........................................................................................................................................
(PID.TID 0000.0001) //      7 ..........................................................................................................................................
(PID.TID 0000.0001) //      6 ..........................................................................................................................................
(PID.TID 0000.0001) //      5 ..........................................................................................................................................
(PID.TID 0000.0001) //      4 ..........................................................................................................................................
(PID.TID 0000.0001) //      3 ..........................................................................................................................................
(PID.TID 0000.0001) //      2 ..........................................................................................................................................
(PID.TID 0000.0001) //      1 ..........................................................................................................................................
(PID.TID 0000.0001) //      0 ..........................................................................................................................................
(PID.TID 0000.0001) //     -1 ..........................................................................................................................................
(PID.TID 0000.0001) //     -2 ..........................................................................................................................................
(PID.TID 0000.0001) //     -3 ..........................................................................................................................................
(PID.TID 0000.0001) //     -4 ..........................................................................................................................................
(PID.TID 0000.0001) // =======================================================
(PID.TID 0000.0001) // END OF FIELD                                          =
(PID.TID 0000.0001) // =======================================================
(PID.TID 0000.0001) 
(PID.TID 0000.0001) // =======================================================
(PID.TID 0000.0001) // Field Model Ro_surf (ini_masks_etc) at iteration          1
(PID.TID 0000.0001) // CMIN =          1.000000000000000E+05
(PID.TID 0000.0001) // CMAX =          1.000000000000000E+05
(PID.TID 0000.0001) // CINT =          0.000000000000000E+00
(PID.TID 0000.0001) // SYMBOLS (CMIN->CMAX): -abcdefghijklmnopqrstuvwxyz+
(PID.TID 0000.0001) //                  0.0: .
(PID.TID 0000.0001) // RANGE I (Lo:Hi:Step):(  -4: 133:   1)
(PID.TID 0000.0001) // RANGE J (Lo:Hi:Step):(  69:  -4:  -1)
(PID.TID 0000.0001) // RANGE K (Lo:Hi:Step):(   1:   1:   1)
(PID.TID 0000.0001) // =======================================================
(PID.TID 0000.0001) K =   1
(PID.TID 0000.0001) //                I=5       I=15      I=25      I=35      I=45      I=55      I=65      I=75      I=85      I=95      I=105     I=115     I=125
(PID.TID 0000.0001) // |--J--|****01234|678901234|678901234|678901234|678901234|678901234|678901234|678901234|678901234|678901234|678901234|678901234|678901234|67890123
(PID.TID 0000.0001) //     69 ..........................................................................................................................................
(PID.TID 0000.0001) //     68 ..........................................................................................................................................
(PID.TID 0000.0001) //     67 ..........................................................................................................................................
(PID.TID 0000.0001) //     66 ..........................................................................................................................................
(PID.TID 0000.0001) //     65 ..........................................................................................................................................
(PID.TID 0000.0001) //     64 ------------------------------------------------------------------------------------------------------------------------------------------
(PID.TID 0000.0001) //     63 ------------------------------------------------------------------------------------------------------------------------------------------
(PID.TID 0000.0001) //     62 ------------------------------------------------------------------------------------------------------------------------------------------
(PID.TID 0000.0001) //     61 ------------------------------------------------------------------------------------------------------------------------------------------
(PID.TID 0000.0001) //     60 ------------------------------------------------------------------------------------------------------------------------------------------
(PID.TID 0000.0001) //     59 ------------------------------------------------------------------------------------------------------------------------------------------
(PID.TID 0000.0001) //     58 ------------------------------------------------------------------------------------------------------------------------------------------
(PID.TID 0000.0001) //     57 ------------------------------------------------------------------------------------------------------------------------------------------
(PID.TID 0000.0001) //     56 ------------------------------------------------------------------------------------------------------------------------------------------
(PID.TID 0000.0001) //     55 ------------------------------------------------------------------------------------------------------------------------------------------
(PID.TID 0000.0001) //     54 ------------------------------------------------------------------------------------------------------------------------------------------
(PID.TID 0000.0001) //     53 ------------------------------------------------------------------------------------------------------------------------------------------
(PID.TID 0000.0001) //     52 ------------------------------------------------------------------------------------------------------------------------------------------
(PID.TID 0000.0001) //     51 ------------------------------------------------------------------------------------------------------------------------------------------
(PID.TID 0000.0001) //     50 ------------------------------------------------------------------------------------------------------------------------------------------
(PID.TID 0000.0001) //     49 ------------------------------------------------------------------------------------------------------------------------------------------
(PID.TID 0000.0001) //     48 ------------------------------------------------------------------------------------------------------------------------------------------
(PID.TID 0000.0001) //     47 ------------------------------------------------------------------------------------------------------------------------------------------
(PID.TID 0000.0001) //     46 ------------------------------------------------------------------------------------------------------------------------------------------
(PID.TID 0000.0001) //     45 ------------------------------------------------------------------------------------------------------------------------------------------
(PID.TID 0000.0001) //     44 ------------------------------------------------------------------------------------------------------------------------------------------
(PID.TID 0000.0001) //     43 ------------------------------------------------------------------------------------------------------------------------------------------
(PID.TID 0000.0001) //     42 ------------------------------------------------------------------------------------------------------------------------------------------
(PID.TID 0000.0001) //     41 ------------------------------------------------------------------------------------------------------------------------------------------
(PID.TID 0000.0001) //     40 ------------------------------------------------------------------------------------------------------------------------------------------
(PID.TID 0000.0001) //     39 ------------------------------------------------------------------------------------------------------------------------------------------
(PID.TID 0000.0001) //     38 ------------------------------------------------------------------------------------------------------------------------------------------
(PID.TID 0000.0001) //     37 ------------------------------------------------------------------------------------------------------------------------------------------
(PID.TID 0000.0001) //     36 ------------------------------------------------------------------------------------------------------------------------------------------
(PID.TID 0000.0001) //     35 ------------------------------------------------------------------------------------------------------------------------------------------
(PID.TID 0000.0001) //     34 ------------------------------------------------------------------------------------------------------------------------------------------
(PID.TID 0000.0001) //     33 ------------------------------------------------------------------------------------------------------------------------------------------
(PID.TID 0000.0001) //     32 ------------------------------------------------------------------------------------------------------------------------------------------
(PID.TID 0000.0001) //     31 ------------------------------------------------------------------------------------------------------------------------------------------
(PID.TID 0000.0001) //     30 ------------------------------------------------------------------------------------------------------------------------------------------
(PID.TID 0000.0001) //     29 ------------------------------------------------------------------------------------------------------------------------------------------
(PID.TID 0000.0001) //     28 ------------------------------------------------------------------------------------------------------------------------------------------
(PID.TID 0000.0001) //     27 ------------------------------------------------------------------------------------------------------------------------------------------
(PID.TID 0000.0001) //     26 ------------------------------------------------------------------------------------------------------------------------------------------
(PID.TID 0000.0001) //     25 ------------------------------------------------------------------------------------------------------------------------------------------
(PID.TID 0000.0001) //     24 ------------------------------------------------------------------------------------------------------------------------------------------
(PID.TID 0000.0001) //     23 ------------------------------------------------------------------------------------------------------------------------------------------
(PID.TID 0000.0001) //     22 ------------------------------------------------------------------------------------------------------------------------------------------
(PID.TID 0000.0001) //     21 ------------------------------------------------------------------------------------------------------------------------------------------
(PID.TID 0000.0001) //     20 ------------------------------------------------------------------------------------------------------------------------------------------
(PID.TID 0000.0001) //     19 ------------------------------------------------------------------------------------------------------------------------------------------
(PID.TID 0000.0001) //     18 ------------------------------------------------------------------------------------------------------------------------------------------
(PID.TID 0000.0001) //     17 ------------------------------------------------------------------------------------------------------------------------------------------
(PID.TID 0000.0001) //     16 ------------------------------------------------------------------------------------------------------------------------------------------
(PID.TID 0000.0001) //     15 ------------------------------------------------------------------------------------------------------------------------------------------
(PID.TID 0000.0001) //     14 ------------------------------------------------------------------------------------------------------------------------------------------
(PID.TID 0000.0001) //     13 ------------------------------------------------------------------------------------------------------------------------------------------
(PID.TID 0000.0001) //     12 ------------------------------------------------------------------------------------------------------------------------------------------
(PID.TID 0000.0001) //     11 ------------------------------------------------------------------------------------------------------------------------------------------
(PID.TID 0000.0001) //     10 ------------------------------------------------------------------------------------------------------------------------------------------
(PID.TID 0000.0001) //      9 ------------------------------------------------------------------------------------------------------------------------------------------
(PID.TID 0000.0001) //      8 ------------------------------------------------------------------------------------------------------------------------------------------
(PID.TID 0000.0001) //      7 ------------------------------------------------------------------------------------------------------------------------------------------
(PID.TID 0000.0001) //      6 ------------------------------------------------------------------------------------------------------------------------------------------
(PID.TID 0000.0001) //      5 ------------------------------------------------------------------------------------------------------------------------------------------
(PID.TID 0000.0001) //      4 ------------------------------------------------------------------------------------------------------------------------------------------
(PID.TID 0000.0001) //      3 ------------------------------------------------------------------------------------------------------------------------------------------
(PID.TID 0000.0001) //      2 ------------------------------------------------------------------------------------------------------------------------------------------
(PID.TID 0000.0001) //      1 ------------------------------------------------------------------------------------------------------------------------------------------
(PID.TID 0000.0001) //      0 ..........................................................................................................................................
(PID.TID 0000.0001) //     -1 ..........................................................................................................................................
(PID.TID 0000.0001) //     -2 ..........................................................................................................................................
(PID.TID 0000.0001) //     -3 ..........................................................................................................................................
(PID.TID 0000.0001) //     -4 ..........................................................................................................................................
(PID.TID 0000.0001) // =======================================================
(PID.TID 0000.0001) // END OF FIELD                                          =
(PID.TID 0000.0001) // =======================================================
(PID.TID 0000.0001) 
(PID.TID 0000.0001) // =======================================================
(PID.TID 0000.0001) // Field hFacC at iteration          1
(PID.TID 0000.0001) // CMIN =          1.000000000000000E+00
(PID.TID 0000.0001) // CMAX =          1.000000000000000E+00
(PID.TID 0000.0001) // CINT =          0.000000000000000E+00
(PID.TID 0000.0001) // SYMBOLS (CMIN->CMAX): -abcdefghijklmnopqrstuvwxyz+
(PID.TID 0000.0001) //                  0.0: .
(PID.TID 0000.0001) // RANGE I (Lo:Hi:Step):(  -4: 133:   1)
(PID.TID 0000.0001) // RANGE J (Lo:Hi:Step):(  69:  -4:  -1)
(PID.TID 0000.0001) // RANGE K (Lo:Hi:Step):(   1:   1:   1)
(PID.TID 0000.0001) // =======================================================
(PID.TID 0000.0001) K =   1
(PID.TID 0000.0001) //                I=5       I=15      I=25      I=35      I=45      I=55      I=65      I=75      I=85      I=95      I=105     I=115     I=125
(PID.TID 0000.0001) // |--J--|****01234|678901234|678901234|678901234|678901234|678901234|678901234|678901234|678901234|678901234|678901234|678901234|678901234|67890123
(PID.TID 0000.0001) //     69 ..........................................................................................................................................
(PID.TID 0000.0001) //     68 ..........................................................................................................................................
(PID.TID 0000.0001) //     67 ..........................................................................................................................................
(PID.TID 0000.0001) //     66 ..........................................................................................................................................
(PID.TID 0000.0001) //     65 ..........................................................................................................................................
(PID.TID 0000.0001) //     64 ------------------------------------------------------------------------------------------------------------------------------------------
(PID.TID 0000.0001) //     63 ------------------------------------------------------------------------------------------------------------------------------------------
(PID.TID 0000.0001) //     62 ------------------------------------------------------------------------------------------------------------------------------------------
(PID.TID 0000.0001) //     61 ------------------------------------------------------------------------------------------------------------------------------------------
(PID.TID 0000.0001) //     60 ------------------------------------------------------------------------------------------------------------------------------------------
(PID.TID 0000.0001) //     59 ------------------------------------------------------------------------------------------------------------------------------------------
(PID.TID 0000.0001) //     58 ------------------------------------------------------------------------------------------------------------------------------------------
(PID.TID 0000.0001) //     57 ------------------------------------------------------------------------------------------------------------------------------------------
(PID.TID 0000.0001) //     56 ------------------------------------------------------------------------------------------------------------------------------------------
(PID.TID 0000.0001) //     55 ------------------------------------------------------------------------------------------------------------------------------------------
(PID.TID 0000.0001) //     54 ------------------------------------------------------------------------------------------------------------------------------------------
(PID.TID 0000.0001) //     53 ------------------------------------------------------------------------------------------------------------------------------------------
(PID.TID 0000.0001) //     52 ------------------------------------------------------------------------------------------------------------------------------------------
(PID.TID 0000.0001) //     51 ------------------------------------------------------------------------------------------------------------------------------------------
(PID.TID 0000.0001) //     50 ------------------------------------------------------------------------------------------------------------------------------------------
(PID.TID 0000.0001) //     49 ------------------------------------------------------------------------------------------------------------------------------------------
(PID.TID 0000.0001) //     48 ------------------------------------------------------------------------------------------------------------------------------------------
(PID.TID 0000.0001) //     47 ------------------------------------------------------------------------------------------------------------------------------------------
(PID.TID 0000.0001) //     46 ------------------------------------------------------------------------------------------------------------------------------------------
(PID.TID 0000.0001) //     45 ------------------------------------------------------------------------------------------------------------------------------------------
(PID.TID 0000.0001) //     44 ------------------------------------------------------------------------------------------------------------------------------------------
(PID.TID 0000.0001) //     43 ------------------------------------------------------------------------------------------------------------------------------------------
(PID.TID 0000.0001) //     42 ------------------------------------------------------------------------------------------------------------------------------------------
(PID.TID 0000.0001) //     41 ------------------------------------------------------------------------------------------------------------------------------------------
(PID.TID 0000.0001) //     40 ------------------------------------------------------------------------------------------------------------------------------------------
(PID.TID 0000.0001) //     39 ------------------------------------------------------------------------------------------------------------------------------------------
(PID.TID 0000.0001) //     38 ------------------------------------------------------------------------------------------------------------------------------------------
(PID.TID 0000.0001) //     37 ------------------------------------------------------------------------------------------------------------------------------------------
(PID.TID 0000.0001) //     36 ------------------------------------------------------------------------------------------------------------------------------------------
(PID.TID 0000.0001) //     35 ------------------------------------------------------------------------------------------------------------------------------------------
(PID.TID 0000.0001) //     34 ------------------------------------------------------------------------------------------------------------------------------------------
(PID.TID 0000.0001) //     33 ------------------------------------------------------------------------------------------------------------------------------------------
(PID.TID 0000.0001) //     32 ------------------------------------------------------------------------------------------------------------------------------------------
(PID.TID 0000.0001) //     31 ------------------------------------------------------------------------------------------------------------------------------------------
(PID.TID 0000.0001) //     30 ------------------------------------------------------------------------------------------------------------------------------------------
(PID.TID 0000.0001) //     29 ------------------------------------------------------------------------------------------------------------------------------------------
(PID.TID 0000.0001) //     28 ------------------------------------------------------------------------------------------------------------------------------------------
(PID.TID 0000.0001) //     27 ------------------------------------------------------------------------------------------------------------------------------------------
(PID.TID 0000.0001) //     26 ------------------------------------------------------------------------------------------------------------------------------------------
(PID.TID 0000.0001) //     25 ------------------------------------------------------------------------------------------------------------------------------------------
(PID.TID 0000.0001) //     24 ------------------------------------------------------------------------------------------------------------------------------------------
(PID.TID 0000.0001) //     23 ------------------------------------------------------------------------------------------------------------------------------------------
(PID.TID 0000.0001) //     22 ------------------------------------------------------------------------------------------------------------------------------------------
(PID.TID 0000.0001) //     21 ------------------------------------------------------------------------------------------------------------------------------------------
(PID.TID 0000.0001) //     20 ------------------------------------------------------------------------------------------------------------------------------------------
(PID.TID 0000.0001) //     19 ------------------------------------------------------------------------------------------------------------------------------------------
(PID.TID 0000.0001) //     18 ------------------------------------------------------------------------------------------------------------------------------------------
(PID.TID 0000.0001) //     17 ------------------------------------------------------------------------------------------------------------------------------------------
(PID.TID 0000.0001) //     16 ------------------------------------------------------------------------------------------------------------------------------------------
(PID.TID 0000.0001) //     15 ------------------------------------------------------------------------------------------------------------------------------------------
(PID.TID 0000.0001) //     14 ------------------------------------------------------------------------------------------------------------------------------------------
(PID.TID 0000.0001) //     13 ------------------------------------------------------------------------------------------------------------------------------------------
(PID.TID 0000.0001) //     12 ------------------------------------------------------------------------------------------------------------------------------------------
(PID.TID 0000.0001) //     11 ------------------------------------------------------------------------------------------------------------------------------------------
(PID.TID 0000.0001) //     10 ------------------------------------------------------------------------------------------------------------------------------------------
(PID.TID 0000.0001) //      9 ------------------------------------------------------------------------------------------------------------------------------------------
(PID.TID 0000.0001) //      8 ------------------------------------------------------------------------------------------------------------------------------------------
(PID.TID 0000.0001) //      7 ------------------------------------------------------------------------------------------------------------------------------------------
(PID.TID 0000.0001) //      6 ------------------------------------------------------------------------------------------------------------------------------------------
(PID.TID 0000.0001) //      5 ------------------------------------------------------------------------------------------------------------------------------------------
(PID.TID 0000.0001) //      4 ------------------------------------------------------------------------------------------------------------------------------------------
(PID.TID 0000.0001) //      3 ------------------------------------------------------------------------------------------------------------------------------------------
(PID.TID 0000.0001) //      2 ------------------------------------------------------------------------------------------------------------------------------------------
(PID.TID 0000.0001) //      1 ------------------------------------------------------------------------------------------------------------------------------------------
(PID.TID 0000.0001) //      0 ..........................................................................................................................................
(PID.TID 0000.0001) //     -1 ..........................................................................................................................................
(PID.TID 0000.0001) //     -2 ..........................................................................................................................................
(PID.TID 0000.0001) //     -3 ..........................................................................................................................................
(PID.TID 0000.0001) //     -4 ..........................................................................................................................................
(PID.TID 0000.0001) // =======================================================
(PID.TID 0000.0001) // END OF FIELD                                          =
(PID.TID 0000.0001) // =======================================================
(PID.TID 0000.0001) 
(PID.TID 0000.0001) // =======================================================
(PID.TID 0000.0001) // Field hFacW at iteration          1
(PID.TID 0000.0001) // CMIN =          1.000000000000000E+00
(PID.TID 0000.0001) // CMAX =          1.000000000000000E+00
(PID.TID 0000.0001) // CINT =          0.000000000000000E+00
(PID.TID 0000.0001) // SYMBOLS (CMIN->CMAX): -abcdefghijklmnopqrstuvwxyz+
(PID.TID 0000.0001) //                  0.0: .
(PID.TID 0000.0001) // RANGE I (Lo:Hi:Step):(  -4: 133:   1)
(PID.TID 0000.0001) // RANGE J (Lo:Hi:Step):(  69:  -4:  -1)
(PID.TID 0000.0001) // RANGE K (Lo:Hi:Step):(   1:   1:   1)
(PID.TID 0000.0001) // =======================================================
(PID.TID 0000.0001) K =   1
(PID.TID 0000.0001) //                I=5       I=15      I=25      I=35      I=45      I=55      I=65      I=75      I=85      I=95      I=105     I=115     I=125
(PID.TID 0000.0001) // |--J--|****01234|678901234|678901234|678901234|678901234|678901234|678901234|678901234|678901234|678901234|678901234|678901234|678901234|67890123
(PID.TID 0000.0001) //     69 ------------------------------------------------------------------------------------------------------------------------------------------
(PID.TID 0000.0001) //     68 ------------------------------------------------------------------------------------------------------------------------------------------
(PID.TID 0000.0001) //     67 ------------------------------------------------------------------------------------------------------------------------------------------
(PID.TID 0000.0001) //     66 ------------------------------------------------------------------------------------------------------------------------------------------
(PID.TID 0000.0001) //     65 ------------------------------------------------------------------------------------------------------------------------------------------
(PID.TID 0000.0001) //     64 ------------------------------------------------------------------------------------------------------------------------------------------
(PID.TID 0000.0001) //     63 ------------------------------------------------------------------------------------------------------------------------------------------
(PID.TID 0000.0001) //     62 ------------------------------------------------------------------------------------------------------------------------------------------
(PID.TID 0000.0001) //     61 ------------------------------------------------------------------------------------------------------------------------------------------
(PID.TID 0000.0001) //     60 ------------------------------------------------------------------------------------------------------------------------------------------
(PID.TID 0000.0001) //     59 ------------------------------------------------------------------------------------------------------------------------------------------
(PID.TID 0000.0001) //     58 ------------------------------------------------------------------------------------------------------------------------------------------
(PID.TID 0000.0001) //     57 ------------------------------------------------------------------------------------------------------------------------------------------
(PID.TID 0000.0001) //     56 ------------------------------------------------------------------------------------------------------------------------------------------
(PID.TID 0000.0001) //     55 ------------------------------------------------------------------------------------------------------------------------------------------
(PID.TID 0000.0001) //     54 ------------------------------------------------------------------------------------------------------------------------------------------
(PID.TID 0000.0001) //     53 ------------------------------------------------------------------------------------------------------------------------------------------
(PID.TID 0000.0001) //     52 ------------------------------------------------------------------------------------------------------------------------------------------
(PID.TID 0000.0001) //     51 ------------------------------------------------------------------------------------------------------------------------------------------
(PID.TID 0000.0001) //     50 ------------------------------------------------------------------------------------------------------------------------------------------
(PID.TID 0000.0001) //     49 ------------------------------------------------------------------------------------------------------------------------------------------
(PID.TID 0000.0001) //     48 ------------------------------------------------------------------------------------------------------------------------------------------
(PID.TID 0000.0001) //     47 ------------------------------------------------------------------------------------------------------------------------------------------
(PID.TID 0000.0001) //     46 ------------------------------------------------------------------------------------------------------------------------------------------
(PID.TID 0000.0001) //     45 ------------------------------------------------------------------------------------------------------------------------------------------
(PID.TID 0000.0001) //     44 ------------------------------------------------------------------------------------------------------------------------------------------
(PID.TID 0000.0001) //     43 ------------------------------------------------------------------------------------------------------------------------------------------
(PID.TID 0000.0001) //     42 ------------------------------------------------------------------------------------------------------------------------------------------
(PID.TID 0000.0001) //     41 ------------------------------------------------------------------------------------------------------------------------------------------
(PID.TID 0000.0001) //     40 ------------------------------------------------------------------------------------------------------------------------------------------
(PID.TID 0000.0001) //     39 ------------------------------------------------------------------------------------------------------------------------------------------
(PID.TID 0000.0001) //     38 ------------------------------------------------------------------------------------------------------------------------------------------
(PID.TID 0000.0001) //     37 ------------------------------------------------------------------------------------------------------------------------------------------
(PID.TID 0000.0001) //     36 ------------------------------------------------------------------------------------------------------------------------------------------
(PID.TID 0000.0001) //     35 ------------------------------------------------------------------------------------------------------------------------------------------
(PID.TID 0000.0001) //     34 ------------------------------------------------------------------------------------------------------------------------------------------
(PID.TID 0000.0001) //     33 ------------------------------------------------------------------------------------------------------------------------------------------
(PID.TID 0000.0001) //     32 ------------------------------------------------------------------------------------------------------------------------------------------
(PID.TID 0000.0001) //     31 ------------------------------------------------------------------------------------------------------------------------------------------
(PID.TID 0000.0001) //     30 ------------------------------------------------------------------------------------------------------------------------------------------
(PID.TID 0000.0001) //     29 ------------------------------------------------------------------------------------------------------------------------------------------
(PID.TID 0000.0001) //     28 ------------------------------------------------------------------------------------------------------------------------------------------
(PID.TID 0000.0001) //     27 ------------------------------------------------------------------------------------------------------------------------------------------
(PID.TID 0000.0001) //     26 ------------------------------------------------------------------------------------------------------------------------------------------
(PID.TID 0000.0001) //     25 ------------------------------------------------------------------------------------------------------------------------------------------
(PID.TID 0000.0001) //     24 ------------------------------------------------------------------------------------------------------------------------------------------
(PID.TID 0000.0001) //     23 ------------------------------------------------------------------------------------------------------------------------------------------
(PID.TID 0000.0001) //     22 ------------------------------------------------------------------------------------------------------------------------------------------
(PID.TID 0000.0001) //     21 ------------------------------------------------------------------------------------------------------------------------------------------
(PID.TID 0000.0001) //     20 ------------------------------------------------------------------------------------------------------------------------------------------
(PID.TID 0000.0001) //     19 ------------------------------------------------------------------------------------------------------------------------------------------
(PID.TID 0000.0001) //     18 ------------------------------------------------------------------------------------------------------------------------------------------
(PID.TID 0000.0001) //     17 ------------------------------------------------------------------------------------------------------------------------------------------
(PID.TID 0000.0001) //     16 ------------------------------------------------------------------------------------------------------------------------------------------
(PID.TID 0000.0001) //     15 ------------------------------------------------------------------------------------------------------------------------------------------
(PID.TID 0000.0001) //     14 ------------------------------------------------------------------------------------------------------------------------------------------
(PID.TID 0000.0001) //     13 ------------------------------------------------------------------------------------------------------------------------------------------
(PID.TID 0000.0001) //     12 ------------------------------------------------------------------------------------------------------------------------------------------
(PID.TID 0000.0001) //     11 ------------------------------------------------------------------------------------------------------------------------------------------
(PID.TID 0000.0001) //     10 ------------------------------------------------------------------------------------------------------------------------------------------
(PID.TID 0000.0001) //      9 ------------------------------------------------------------------------------------------------------------------------------------------
(PID.TID 0000.0001) //      8 ------------------------------------------------------------------------------------------------------------------------------------------
(PID.TID 0000.0001) //      7 ------------------------------------------------------------------------------------------------------------------------------------------
(PID.TID 0000.0001) //      6 ------------------------------------------------------------------------------------------------------------------------------------------
(PID.TID 0000.0001) //      5 ------------------------------------------------------------------------------------------------------------------------------------------
(PID.TID 0000.0001) //      4 ------------------------------------------------------------------------------------------------------------------------------------------
(PID.TID 0000.0001) //      3 ------------------------------------------------------------------------------------------------------------------------------------------
(PID.TID 0000.0001) //      2 ------------------------------------------------------------------------------------------------------------------------------------------
(PID.TID 0000.0001) //      1 ------------------------------------------------------------------------------------------------------------------------------------------
(PID.TID 0000.0001) //      0 ------------------------------------------------------------------------------------------------------------------------------------------
(PID.TID 0000.0001) //     -1 ------------------------------------------------------------------------------------------------------------------------------------------
(PID.TID 0000.0001) //     -2 ------------------------------------------------------------------------------------------------------------------------------------------
(PID.TID 0000.0001) //     -3 ------------------------------------------------------------------------------------------------------------------------------------------
(PID.TID 0000.0001) //     -4 ------------------------------------------------------------------------------------------------------------------------------------------
(PID.TID 0000.0001) // =======================================================
(PID.TID 0000.0001) // END OF FIELD                                          =
(PID.TID 0000.0001) // =======================================================
(PID.TID 0000.0001) 
(PID.TID 0000.0001) // =======================================================
(PID.TID 0000.0001) // Field hFacS at iteration          1
(PID.TID 0000.0001) // CMIN =          1.000000000000000E+00
(PID.TID 0000.0001) // CMAX =          1.000000000000000E+00
(PID.TID 0000.0001) // CINT =          0.000000000000000E+00
(PID.TID 0000.0001) // SYMBOLS (CMIN->CMAX): -abcdefghijklmnopqrstuvwxyz+
(PID.TID 0000.0001) //                  0.0: .
(PID.TID 0000.0001) // RANGE I (Lo:Hi:Step):(  -4: 133:   1)
(PID.TID 0000.0001) // RANGE J (Lo:Hi:Step):(  69:  -4:  -1)
(PID.TID 0000.0001) // RANGE K (Lo:Hi:Step):(   1:   1:   1)
(PID.TID 0000.0001) // =======================================================
(PID.TID 0000.0001) K =   1
(PID.TID 0000.0001) //                I=5       I=15      I=25      I=35      I=45      I=55      I=65      I=75      I=85      I=95      I=105     I=115     I=125
(PID.TID 0000.0001) // |--J--|****01234|678901234|678901234|678901234|678901234|678901234|678901234|678901234|678901234|678901234|678901234|678901234|678901234|67890123
(PID.TID 0000.0001) //     69 ..........................................................................................................................................
(PID.TID 0000.0001) //     68 ..........................................................................................................................................
(PID.TID 0000.0001) //     67 ..........................................................................................................................................
(PID.TID 0000.0001) //     66 ..........................................................................................................................................
(PID.TID 0000.0001) //     65 ..........................................................................................................................................
(PID.TID 0000.0001) //     64 ------------------------------------------------------------------------------------------------------------------------------------------
(PID.TID 0000.0001) //     63 ------------------------------------------------------------------------------------------------------------------------------------------
(PID.TID 0000.0001) //     62 ------------------------------------------------------------------------------------------------------------------------------------------
(PID.TID 0000.0001) //     61 ------------------------------------------------------------------------------------------------------------------------------------------
(PID.TID 0000.0001) //     60 ------------------------------------------------------------------------------------------------------------------------------------------
(PID.TID 0000.0001) //     59 ------------------------------------------------------------------------------------------------------------------------------------------
(PID.TID 0000.0001) //     58 ------------------------------------------------------------------------------------------------------------------------------------------
(PID.TID 0000.0001) //     57 ------------------------------------------------------------------------------------------------------------------------------------------
(PID.TID 0000.0001) //     56 ------------------------------------------------------------------------------------------------------------------------------------------
(PID.TID 0000.0001) //     55 ------------------------------------------------------------------------------------------------------------------------------------------
(PID.TID 0000.0001) //     54 ------------------------------------------------------------------------------------------------------------------------------------------
(PID.TID 0000.0001) //     53 ------------------------------------------------------------------------------------------------------------------------------------------
(PID.TID 0000.0001) //     52 ------------------------------------------------------------------------------------------------------------------------------------------
(PID.TID 0000.0001) //     51 ------------------------------------------------------------------------------------------------------------------------------------------
(PID.TID 0000.0001) //     50 ------------------------------------------------------------------------------------------------------------------------------------------
(PID.TID 0000.0001) //     49 ------------------------------------------------------------------------------------------------------------------------------------------
(PID.TID 0000.0001) //     48 ------------------------------------------------------------------------------------------------------------------------------------------
(PID.TID 0000.0001) //     47 ------------------------------------------------------------------------------------------------------------------------------------------
(PID.TID 0000.0001) //     46 ------------------------------------------------------------------------------------------------------------------------------------------
(PID.TID 0000.0001) //     45 ------------------------------------------------------------------------------------------------------------------------------------------
(PID.TID 0000.0001) //     44 ------------------------------------------------------------------------------------------------------------------------------------------
(PID.TID 0000.0001) //     43 ------------------------------------------------------------------------------------------------------------------------------------------
(PID.TID 0000.0001) //     42 ------------------------------------------------------------------------------------------------------------------------------------------
(PID.TID 0000.0001) //     41 ------------------------------------------------------------------------------------------------------------------------------------------
(PID.TID 0000.0001) //     40 ------------------------------------------------------------------------------------------------------------------------------------------
(PID.TID 0000.0001) //     39 ------------------------------------------------------------------------------------------------------------------------------------------
(PID.TID 0000.0001) //     38 ------------------------------------------------------------------------------------------------------------------------------------------
(PID.TID 0000.0001) //     37 ------------------------------------------------------------------------------------------------------------------------------------------
(PID.TID 0000.0001) //     36 ------------------------------------------------------------------------------------------------------------------------------------------
(PID.TID 0000.0001) //     35 ------------------------------------------------------------------------------------------------------------------------------------------
(PID.TID 0000.0001) //     34 ------------------------------------------------------------------------------------------------------------------------------------------
(PID.TID 0000.0001) //     33 ------------------------------------------------------------------------------------------------------------------------------------------
(PID.TID 0000.0001) //     32 ------------------------------------------------------------------------------------------------------------------------------------------
(PID.TID 0000.0001) //     31 ------------------------------------------------------------------------------------------------------------------------------------------
(PID.TID 0000.0001) //     30 ------------------------------------------------------------------------------------------------------------------------------------------
(PID.TID 0000.0001) //     29 ------------------------------------------------------------------------------------------------------------------------------------------
(PID.TID 0000.0001) //     28 ------------------------------------------------------------------------------------------------------------------------------------------
(PID.TID 0000.0001) //     27 ------------------------------------------------------------------------------------------------------------------------------------------
(PID.TID 0000.0001) //     26 ------------------------------------------------------------------------------------------------------------------------------------------
(PID.TID 0000.0001) //     25 ------------------------------------------------------------------------------------------------------------------------------------------
(PID.TID 0000.0001) //     24 ------------------------------------------------------------------------------------------------------------------------------------------
(PID.TID 0000.0001) //     23 ------------------------------------------------------------------------------------------------------------------------------------------
(PID.TID 0000.0001) //     22 ------------------------------------------------------------------------------------------------------------------------------------------
(PID.TID 0000.0001) //     21 ------------------------------------------------------------------------------------------------------------------------------------------
(PID.TID 0000.0001) //     20 ------------------------------------------------------------------------------------------------------------------------------------------
(PID.TID 0000.0001) //     19 ------------------------------------------------------------------------------------------------------------------------------------------
(PID.TID 0000.0001) //     18 ------------------------------------------------------------------------------------------------------------------------------------------
(PID.TID 0000.0001) //     17 ------------------------------------------------------------------------------------------------------------------------------------------
(PID.TID 0000.0001) //     16 ------------------------------------------------------------------------------------------------------------------------------------------
(PID.TID 0000.0001) //     15 ------------------------------------------------------------------------------------------------------------------------------------------
(PID.TID 0000.0001) //     14 ------------------------------------------------------------------------------------------------------------------------------------------
(PID.TID 0000.0001) //     13 ------------------------------------------------------------------------------------------------------------------------------------------
(PID.TID 0000.0001) //     12 ------------------------------------------------------------------------------------------------------------------------------------------
(PID.TID 0000.0001) //     11 ------------------------------------------------------------------------------------------------------------------------------------------
(PID.TID 0000.0001) //     10 ------------------------------------------------------------------------------------------------------------------------------------------
(PID.TID 0000.0001) //      9 ------------------------------------------------------------------------------------------------------------------------------------------
(PID.TID 0000.0001) //      8 ------------------------------------------------------------------------------------------------------------------------------------------
(PID.TID 0000.0001) //      7 ------------------------------------------------------------------------------------------------------------------------------------------
(PID.TID 0000.0001) //      6 ------------------------------------------------------------------------------------------------------------------------------------------
(PID.TID 0000.0001) //      5 ------------------------------------------------------------------------------------------------------------------------------------------
(PID.TID 0000.0001) //      4 ------------------------------------------------------------------------------------------------------------------------------------------
(PID.TID 0000.0001) //      3 ------------------------------------------------------------------------------------------------------------------------------------------
[...]
(PID.TID 0000.0001) // =======================================================
(PID.TID 0000.0001) // End MONITOR dynamic field statistics
(PID.TID 0000.0001) // =======================================================
 cg2d: Sum(rhs),rhsMax =  -9.72187608194730E-13  4.29891815625397E+01
(PID.TID 0000.0001)                    cg2d_init_res =    1.19904817953667E+01
(PID.TID 0000.0001)                       cg2d_iters =    76
(PID.TID 0000.0001)                         cg2d_res =    9.79556269438728E-13
(PID.TID 0000.0001) // =======================================================
(PID.TID 0000.0001) // Begin MONITOR dynamic field statistics
(PID.TID 0000.0001) // =======================================================
(PID.TID 0000.0001) %MON time_tsnumber                =                     7
(PID.TID 0000.0001) %MON time_secondsf                =   3.1500000000000E+03
(PID.TID 0000.0001) %MON time_secondsi                =                  3150
(PID.TID 0000.0001) %MON dynstat_eta_max              =   5.5468331884621E+02
(PID.TID 0000.0001) %MON dynstat_eta_min              =  -3.6174674107515E+02
(PID.TID 0000.0001) %MON dynstat_eta_mean             =   1.4511160702700E+02
(PID.TID 0000.0001) %MON dynstat_eta_sd               =   3.2307459787670E+02
(PID.TID 0000.0001) %MON dynstat_uvel_max             =   1.8247603159373E+00
(PID.TID 0000.0001) %MON dynstat_uvel_min             =  -2.2064500160628E-03
(PID.TID 0000.0001) %MON dynstat_uvel_mean            =   5.1246663482258E-01
(PID.TID 0000.0001) %MON dynstat_uvel_sd              =   5.1103181845283E-01
(PID.TID 0000.0001) %MON dynstat_vvel_max             =   1.2946937294468E+01
(PID.TID 0000.0001) %MON dynstat_vvel_min             =  -1.2947015024490E+01
(PID.TID 0000.0001) %MON dynstat_vvel_mean            =   3.2237525841562E-06
(PID.TID 0000.0001) %MON dynstat_vvel_sd              =   4.7945625608976E+00
(PID.TID 0000.0001) %MON dynstat_wvel_max             =   2.6123155343358E-01
(PID.TID 0000.0001) %MON dynstat_wvel_min             =  -1.7093702160953E-01
(PID.TID 0000.0001) %MON dynstat_wvel_mean            =   5.0980788239866E-02
(PID.TID 0000.0001) %MON dynstat_wvel_sd              =   1.2546442071364E-01
(PID.TID 0000.0001) %MON dynstat_theta_max            =   4.2008510799093E+02
(PID.TID 0000.0001) %MON dynstat_theta_min            =   2.5503614968939E+02
(PID.TID 0000.0001) %MON dynstat_theta_mean           =   3.1722918385850E+02
(PID.TID 0000.0001) %MON dynstat_theta_sd             =   5.4749013672144E+01
(PID.TID 0000.0001) %MON dynstat_salt_max             =   0.0000000000000E+00
(PID.TID 0000.0001) %MON dynstat_salt_min             =   0.0000000000000E+00
(PID.TID 0000.0001) %MON dynstat_salt_mean            =   0.0000000000000E+00
(PID.TID 0000.0001) %MON dynstat_salt_sd              =   0.0000000000000E+00
(PID.TID 0000.0001) %MON advcfl_uvel_max              =   5.6863995792927E-03
(PID.TID 0000.0001) %MON advcfl_vvel_max              =   1.8632573141495E-02
(PID.TID 0000.0001) %MON advcfl_wvel_max              =   2.3510839809023E-02
(PID.TID 0000.0001) %MON advcfl_W_hf_max              =   2.3366426226014E-02
(PID.TID 0000.0001) %MON ke_max                       =   8.4295294670332E+01
(PID.TID 0000.0001) %MON ke_mean                      =   1.1576210437775E+01
(PID.TID 0000.0001) // =======================================================
(PID.TID 0000.0001) // End MONITOR dynamic field statistics
(PID.TID 0000.0001) // =======================================================
 cg2d: Sum(rhs),rhsMax =   5.94836679912447E-13  5.48807775981107E+01
(PID.TID 0000.0001)                    cg2d_init_res =    1.05561210609256E+01
(PID.TID 0000.0001)                       cg2d_iters =    74
(PID.TID 0000.0001)                         cg2d_res =    7.46679996642933E-13
(PID.TID 0000.0001) // =======================================================
(PID.TID 0000.0001) // Begin MONITOR dynamic field statistics
(PID.TID 0000.0001) // =======================================================
(PID.TID 0000.0001) %MON time_tsnumber                =                     8
(PID.TID 0000.0001) %MON time_secondsf                =   3.6000000000000E+03
(PID.TID 0000.0001) %MON time_secondsi                =                  3600
(PID.TID 0000.0001) %MON dynstat_eta_max              =   7.0583163304189E+02
(PID.TID 0000.0001) %MON dynstat_eta_min              =  -4.6185853797789E+02
(PID.TID 0000.0001) %MON dynstat_eta_mean             =   1.8495347347826E+02
(PID.TID 0000.0001) %MON dynstat_eta_sd               =   4.1125822419265E+02
(PID.TID 0000.0001) %MON dynstat_uvel_max             =   2.3625059516775E+00
(PID.TID 0000.0001) %MON dynstat_uvel_min             =  -2.5836579768402E-03
(PID.TID 0000.0001) %MON dynstat_uvel_mean            =   6.6594733286329E-01
(PID.TID 0000.0001) %MON dynstat_uvel_sd              =   6.6594314056017E-01
(PID.TID 0000.0001) %MON dynstat_vvel_max             =   1.4521064031827E+01
(PID.TID 0000.0001) %MON dynstat_vvel_min             =  -1.4521195983448E+01
(PID.TID 0000.0001) %MON dynstat_vvel_mean            =   4.0961632791644E-06
(PID.TID 0000.0001) %MON dynstat_vvel_sd              =   5.4162001566358E+00
(PID.TID 0000.0001) %MON dynstat_wvel_max             =   2.9965657413603E-01
(PID.TID 0000.0001) %MON dynstat_wvel_min             =  -1.9726476236182E-01
(PID.TID 0000.0001) %MON dynstat_wvel_mean            =   5.8702485749019E-02
(PID.TID 0000.0001) %MON dynstat_wvel_sd              =   1.4417022563612E-01
(PID.TID 0000.0001) %MON dynstat_theta_max            =   4.2029349897580E+02
(PID.TID 0000.0001) %MON dynstat_theta_min            =   2.5503619098843E+02
(PID.TID 0000.0001) %MON dynstat_theta_mean           =   3.1725890904498E+02
(PID.TID 0000.0001) %MON dynstat_theta_sd             =   5.4753963695980E+01
(PID.TID 0000.0001) %MON dynstat_salt_max             =   0.0000000000000E+00
(PID.TID 0000.0001) %MON dynstat_salt_min             =   0.0000000000000E+00
(PID.TID 0000.0001) %MON dynstat_salt_mean            =   0.0000000000000E+00
(PID.TID 0000.0001) %MON dynstat_salt_sd              =   0.0000000000000E+00
(PID.TID 0000.0001) %MON advcfl_uvel_max              =   7.4281761764490E-03
(PID.TID 0000.0001) %MON advcfl_vvel_max              =   2.0898040648889E-02
(PID.TID 0000.0001) %MON advcfl_wvel_max              =   2.6969091672242E-02
(PID.TID 0000.0001) %MON advcfl_W_hf_max              =   2.6822243024176E-02
(PID.TID 0000.0001) %MON ke_max                       =   1.0719029054318E+02
(PID.TID 0000.0001) %MON ke_mean                      =   1.4881913688114E+01
(PID.TID 0000.0001) // =======================================================
(PID.TID 0000.0001) // End MONITOR dynamic field statistics
(PID.TID 0000.0001) // =======================================================
 cg2d: Sum(rhs),rhsMax =   1.68110664278132E-12  6.80774048291966E+01
(PID.TID 0000.0001)                    cg2d_init_res =    9.40291807198687E+00
(PID.TID 0000.0001)                       cg2d_iters =    73
(PID.TID 0000.0001)                         cg2d_res =    7.58975819365034E-13
(PID.TID 0000.0001) // =======================================================
(PID.TID 0000.0001) // Begin MONITOR dynamic field statistics
(PID.TID 0000.0001) // =======================================================
(PID.TID 0000.0001) %MON time_tsnumber                =                     9
(PID.TID 0000.0001) %MON time_secondsf                =   4.0500000000000E+03
(PID.TID 0000.0001) %MON time_secondsi                =                  4050
(PID.TID 0000.0001) %MON dynstat_eta_max              =   8.7218884130340E+02
(PID.TID 0000.0001) %MON dynstat_eta_min              =  -5.7294762288876E+02
(PID.TID 0000.0001) %MON dynstat_eta_mean             =   2.2896637567854E+02
(PID.TID 0000.0001) %MON dynstat_eta_sd               =   5.0867938314382E+02
(PID.TID 0000.0001) %MON dynstat_uvel_max             =   2.9613020447329E+00
(PID.TID 0000.0001) %MON dynstat_uvel_min             =  -1.0752186702536E-02
(PID.TID 0000.0001) %MON dynstat_uvel_mean            =   8.3703100778728E-01
(PID.TID 0000.0001) %MON dynstat_uvel_sd              =   8.3962752197233E-01
(PID.TID 0000.0001) %MON dynstat_vvel_max             =   1.6022380718525E+01
(PID.TID 0000.0001) %MON dynstat_vvel_min             =  -1.6022514806293E+01
(PID.TID 0000.0001) %MON dynstat_vvel_mean            =   4.7622227328064E-06
(PID.TID 0000.0001) %MON dynstat_vvel_sd              =   6.0146794859453E+00
(PID.TID 0000.0001) %MON dynstat_wvel_max             =   3.3590597393059E-01
(PID.TID 0000.0001) %MON dynstat_wvel_min             =  -2.2266599827117E-01
(PID.TID 0000.0001) %MON dynstat_wvel_mean            =   6.6091798659359E-02
(PID.TID 0000.0001) %MON dynstat_wvel_sd              =   1.6210354261159E-01
(PID.TID 0000.0001) %MON dynstat_theta_max            =   4.2051291955649E+02
(PID.TID 0000.0001) %MON dynstat_theta_min            =   2.5503623760908E+02
(PID.TID 0000.0001) %MON dynstat_theta_mean           =   3.1729203078285E+02
(PID.TID 0000.0001) %MON dynstat_theta_sd             =   5.4759491289584E+01
(PID.TID 0000.0001) %MON dynstat_salt_max             =   0.0000000000000E+00
(PID.TID 0000.0001) %MON dynstat_salt_min             =   0.0000000000000E+00
(PID.TID 0000.0001) %MON dynstat_salt_mean            =   0.0000000000000E+00
(PID.TID 0000.0001) %MON dynstat_salt_sd              =   0.0000000000000E+00
(PID.TID 0000.0001) %MON advcfl_uvel_max              =   9.3835337500607E-03
(PID.TID 0000.0001) %MON advcfl_vvel_max              =   2.3058649308294E-02
(PID.TID 0000.0001) %MON advcfl_wvel_max              =   3.0231537653753E-02
(PID.TID 0000.0001) %MON advcfl_W_hf_max              =   3.0089434306431E-02
(PID.TID 0000.0001) %MON ke_max                       =   1.3194229623365E+02
(PID.TID 0000.0001) %MON ke_mean                      =   1.8508354415861E+01
(PID.TID 0000.0001) // =======================================================
(PID.TID 0000.0001) // End MONITOR dynamic field statistics
(PID.TID 0000.0001) // =======================================================
 cg2d: Sum(rhs),rhsMax =  -1.72292735634016E-13  8.25194585600375E+01
(PID.TID 0000.0001)                    cg2d_init_res =    8.45344141353559E+00
(PID.TID 0000.0001)                       cg2d_iters =    73
(PID.TID 0000.0001)                         cg2d_res =    6.92967140772826E-13
(PID.TID 0000.0001) // =======================================================
(PID.TID 0000.0001) // Begin MONITOR dynamic field statistics
(PID.TID 0000.0001) // =======================================================
(PID.TID 0000.0001) %MON time_tsnumber                =                    10
(PID.TID 0000.0001) %MON time_secondsf                =   4.5000000000000E+03
(PID.TID 0000.0001) %MON time_secondsi                =                  4500
(PID.TID 0000.0001) %MON dynstat_eta_max              =   1.0525570172772E+03
(PID.TID 0000.0001) %MON dynstat_eta_min              =  -6.9451267779314E+02
(PID.TID 0000.0001) %MON dynstat_eta_mean             =   2.7688821938725E+02
(PID.TID 0000.0001) %MON dynstat_eta_sd               =   6.1479567312851E+02
(PID.TID 0000.0001) %MON dynstat_uvel_max             =   3.6186052268397E+00
(PID.TID 0000.0001) %MON dynstat_uvel_min             =  -2.7208499626353E-02
(PID.TID 0000.0001) %MON dynstat_uvel_mean            =   1.0248308915719E+00
(PID.TID 0000.0001) %MON dynstat_uvel_sd              =   1.0315229363161E+00
(PID.TID 0000.0001) %MON dynstat_vvel_max             =   1.7448258807936E+01
(PID.TID 0000.0001) %MON dynstat_vvel_min             =  -1.7448382639638E+01
(PID.TID 0000.0001) %MON dynstat_vvel_mean            =   5.1352619889177E-06
(PID.TID 0000.0001) %MON dynstat_vvel_sd              =   6.5878399801847E+00
(PID.TID 0000.0001) %MON dynstat_wvel_max             =   3.6971696788168E-01
(PID.TID 0000.0001) %MON dynstat_wvel_min             =  -2.4703403691307E-01
(PID.TID 0000.0001) %MON dynstat_wvel_mean            =   7.3111395983093E-02
(PID.TID 0000.0001) %MON dynstat_wvel_sd              =   1.7918865857473E-01
(PID.TID 0000.0001) %MON dynstat_theta_max            =   4.2074104962655E+02
(PID.TID 0000.0001) %MON dynstat_theta_min            =   2.5503628061758E+02
(PID.TID 0000.0001) %MON dynstat_theta_mean           =   3.1732837297951E+02
(PID.TID 0000.0001) %MON dynstat_theta_sd             =   5.4765571158718E+01
(PID.TID 0000.0001) %MON dynstat_salt_max             =   0.0000000000000E+00
(PID.TID 0000.0001) %MON dynstat_salt_min             =   0.0000000000000E+00
(PID.TID 0000.0001) %MON dynstat_salt_mean            =   0.0000000000000E+00
(PID.TID 0000.0001) %MON dynstat_salt_sd              =   0.0000000000000E+00
(PID.TID 0000.0001) %MON advcfl_uvel_max              =   1.1544089567933E-02
(PID.TID 0000.0001) %MON advcfl_vvel_max              =   2.5110673396059E-02
(PID.TID 0000.0001) %MON advcfl_wvel_max              =   3.3274527109352E-02
(PID.TID 0000.0001) %MON advcfl_W_hf_max              =   3.3145933044123E-02
(PID.TID 0000.0001) %MON ke_max                       =   1.5827797079442E+02
(PID.TID 0000.0001) %MON ke_mean                      =   2.2417917111345E+01
(PID.TID 0000.0001) // =======================================================
(PID.TID 0000.0001) // End MONITOR dynamic field statistics
(PID.TID 0000.0001) // =======================================================
(PID.TID 0000.0001)   Seconds in section "ALL                [THE_MODEL_MAIN]":
(PID.TID 0000.0001)           User time:  17.74
(PID.TID 0000.0001)         System time:  0.200000003
(PID.TID 0000.0001)     Wall clock time:  20.089497
(PID.TID 0000.0001)          No. starts: 1
(PID.TID 0000.0001)           No. stops: 1
(PID.TID 0000.0001)   Seconds in section "INITIALISE_FIXED   [THE_MODEL_MAIN]":
(PID.TID 0000.0001)           User time:  0.369999995
(PID.TID 0000.0001)         System time:  0.00999999978
(PID.TID 0000.0001)     Wall clock time:  0.543758988
(PID.TID 0000.0001)          No. starts: 1
(PID.TID 0000.0001)           No. stops: 1
(PID.TID 0000.0001)   Seconds in section "THE_MAIN_LOOP      [THE_MODEL_MAIN]":
(PID.TID 0000.0001)           User time:  17.1500007
(PID.TID 0000.0001)         System time:  0.140000006
(PID.TID 0000.0001)     Wall clock time:  18.5301299
(PID.TID 0000.0001)          No. starts: 1
(PID.TID 0000.0001)           No. stops: 1
(PID.TID 0000.0001)   Seconds in section "INITIALISE_VARIA    [THE_MAIN_LOOP]":
(PID.TID 0000.0001)           User time:  1.11000001
(PID.TID 0000.0001)         System time:  0.00999999978
(PID.TID 0000.0001)     Wall clock time:  1.11487007
(PID.TID 0000.0001)          No. starts: 1
(PID.TID 0000.0001)           No. stops: 1
(PID.TID 0000.0001)   Seconds in section "WRITE_STATE         [THE_MAIN_LOOP]":
(PID.TID 0000.0001)           User time:  0.100000024
(PID.TID 0000.0001)         System time:  0.00999999978
(PID.TID 0000.0001)     Wall clock time:  0.359376907
(PID.TID 0000.0001)          No. starts: 1
(PID.TID 0000.0001)           No. stops: 1
(PID.TID 0000.0001)   Seconds in section "MONITOR             [THE_MAIN_LOOP]":
(PID.TID 0000.0001)           User time:  0.0399999619
(PID.TID 0000.0001)         System time:  0.
(PID.TID 0000.0001)     Wall clock time:  0.0349700451
(PID.TID 0000.0001)          No. starts: 1
(PID.TID 0000.0001)           No. stops: 1
(PID.TID 0000.0001)   Seconds in section "MAIN LOOP           [THE_MAIN_LOOP]":
(PID.TID 0000.0001)           User time:  15.9000007
(PID.TID 0000.0001)         System time:  0.120000007
(PID.TID 0000.0001)     Wall clock time:  17.020617
(PID.TID 0000.0001)          No. starts: 1
(PID.TID 0000.0001)           No. stops: 1
(PID.TID 0000.0001)   Seconds in section "FORWARD_STEP        [THE_MAIN_LOOP]":
(PID.TID 0000.0001)           User time:  15.9000007
(PID.TID 0000.0001)         System time:  0.120000007
(PID.TID 0000.0001)     Wall clock time:  17.0200009
(PID.TID 0000.0001)          No. starts: 10
(PID.TID 0000.0001)           No. stops: 10
(PID.TID 0000.0001)   Seconds in section "EXTERNAL_FIELDS_LOAD[THE_MAIN_LOOP]":
(PID.TID 0000.0001)           User time:  0.
(PID.TID 0000.0001)         System time:  0.
(PID.TID 0000.0001)     Wall clock time:  0.000559210777
(PID.TID 0000.0001)          No. starts: 10
(PID.TID 0000.0001)           No. stops: 10
(PID.TID 0000.0001)   Seconds in section "DYNAMICS            [THE_MAIN_LOOP]":
(PID.TID 0000.0001)           User time:  5.22000062
(PID.TID 0000.0001)         System time:  0.00999999791
(PID.TID 0000.0001)     Wall clock time:  5.22728682
(PID.TID 0000.0001)          No. starts: 10
(PID.TID 0000.0001)           No. stops: 10
(PID.TID 0000.0001)   Seconds in section "SOLVE_FOR_PRESSURE  [THE_MAIN_LOOP]":
(PID.TID 0000.0001)           User time:  6.60999751
(PID.TID 0000.0001)         System time:  0.0699999984
(PID.TID 0000.0001)     Wall clock time:  7.33473802
(PID.TID 0000.0001)          No. starts: 10
(PID.TID 0000.0001)           No. stops: 10
(PID.TID 0000.0001)   Seconds in section "THE_CORRECTION_STEP [THE_MAIN_LOOP]":
(PID.TID 0000.0001)           User time:  3.44000077
(PID.TID 0000.0001)         System time:  0.0100000016
(PID.TID 0000.0001)     Wall clock time:  3.43530285
(PID.TID 0000.0001)          No. starts: 10
(PID.TID 0000.0001)           No. stops: 10
(PID.TID 0000.0001)   Seconds in section "BLOCKING_EXCHANGES  [THE_MAIN_LOOP]":
(PID.TID 0000.0001)           User time:  0.0200002193
(PID.TID 0000.0001)         System time:  0.
(PID.TID 0000.0001)     Wall clock time:  0.0347319841
(PID.TID 0000.0001)          No. starts: 10
(PID.TID 0000.0001)           No. stops: 10
(PID.TID 0000.0001)   Seconds in section "DO_THE_MODEL_IO     [THE_MAIN_LOOP]":
(PID.TID 0000.0001)           User time:  0.11000061
(PID.TID 0000.0001)         System time:  0.0300000086
(PID.TID 0000.0001)     Wall clock time:  0.491274118
(PID.TID 0000.0001)          No. starts: 10
(PID.TID 0000.0001)           No. stops: 10
(PID.TID 0000.0001)   Seconds in section "WRITE_CHECKPOINT    [THE_MAIN_LOOP]":
(PID.TID 0000.0001)           User time:  0.
(PID.TID 0000.0001)         System time:  0.
(PID.TID 0000.0001)     Wall clock time:  0.000564098358
(PID.TID 0000.0001)          No. starts: 10
(PID.TID 0000.0001)           No. stops: 10
(PID.TID 0000.0001)   Seconds in section "WRITE_CHECKPOINT   [THE_MODEL_MAIN]":
(PID.TID 0000.0001)           User time:  0.219999313
(PID.TID 0000.0001)         System time:  0.049999997
(PID.TID 0000.0001)     Wall clock time:  1.01534998
(PID.TID 0000.0001)          No. starts: 1
(PID.TID 0000.0001)           No. stops: 1
(PID.TID 0000.0001) // ======================================================
(PID.TID 0000.0001) // Tile <-> Tile communication statistics
(PID.TID 0000.0001) // =====================================================STOP NORMAL END statement executed
=
(PID.TID 0000.0001) // o Tile number: 000001
(PID.TID 0000.0001) //         No. X exchanges =              0
(PID.TID 0000.0001) //            Max. X spins =              0
(PID.TID 0000.0001) //            Min. X spins =     1000000000
(PID.TID 0000.0001) //          Total. X spins =              0
(PID.TID 0000.0001) //            Avg. X spins =       0.00E+00
(PID.TID 0000.0001) //         No. Y exchanges =              0
(PID.TID 0000.0001) //            Max. Y spins =              0
(PID.TID 0000.0001) //            Min. Y spins =     1000000000
(PID.TID 0000.0001) //          Total. Y spins =              0
(PID.TID 0000.0001) //            Avg. Y spins =       0.00E+00
(PID.TID 0000.0001) // o Thread number: 000001
(PID.TID 0000.0001) //            No. barriers =          11765
(PID.TID 0000.0001) //      Max. barrier spins =              1
(PID.TID 0000.0001) //      Min. barrier spins =              1
(PID.TID 0000.0001) //     Total barrier spins =          11765
(PID.TID 0000.0001) //      Avg. barrier spins =       1.00E+00
