(PID.TID 0000.0001) 
(PID.TID 0000.0001) // ======================================================
(PID.TID 0000.0001) //                      MITgcm UV
(PID.TID 0000.0001) //                      =========
(PID.TID 0000.0001) // ======================================================
(PID.TID 0000.0001) // execution environment starting up...
(PID.TID 0000.0001) // Run starting Wed Apr  1 14:19:48 1998
(PID.TID 0000.0001) // on melville.lcs.mit.edu
(PID.TID 0000.0001) // account cnh
(PID.TID 0000.0001) // MITgcm UV Release: $Name:  $
(PID.TID 0000.0001) 
(PID.TID 0000.0001) // =======================================================
(PID.TID 0000.0001) // Execution Environment parameter file "eedata"
(PID.TID 0000.0001) // =======================================================
(PID.TID 0000.0001) ># Example "eedata" file
(PID.TID 0000.0001) ># Lines beginning "#" are comments
(PID.TID 0000.0001) ># nTx - No. threads per process in X
(PID.TID 0000.0001) ># nTy - No. threads per process in Y
(PID.TID 0000.0001) > &EEPARMS
(PID.TID 0000.0001) > &
(PID.TID 0000.0001) ># Note: Some systems use & as the
(PID.TID 0000.0001) ># namelist terminator. Other systems
(PID.TID 0000.0001) ># use a / character (as shown here).
(PID.TID 0000.0001) 
(PID.TID 0000.0001) // =======================================================
(PID.TID 0000.0001) // Computational Grid Specification ( see files "SIZE.h" )
(PID.TID 0000.0001) //                                  ( and "eedata"       )
(PID.TID 0000.0001) // =======================================================
(PID.TID 0000.0001)      nPx =    1 ; /* No. processes in X */
(PID.TID 0000.0001)      nPy =    1 ; /* No. processes in Y */
(PID.TID 0000.0001)      nSx =    1 ; /* No. tiles in X per process */
(PID.TID 0000.0001)      nSy =    1 ; /* No. tiles in Y per process */
(PID.TID 0000.0001)      sNx =  128 ; /* Tile size in X */
(PID.TID 0000.0001)      sNy =   64 ; /* Tile size in Y */
(PID.TID 0000.0001)      OLx =    5 ; /* Tile overlap distance in X */
(PID.TID 0000.0001)      OLy =    5 ; /* Tile overlap distance in Y */
(PID.TID 0000.0001)      nTx =    1 ; /* No. threads in X per process */
(PID.TID 0000.0001)      nTy =    1 ; /* No. threads in Y per process */
(PID.TID 0000.0001)       Nr =    5 ; /* No. levels in the vertical   */
(PID.TID 0000.0001)       nX =  128 ; /* Total domain size in X ( = nPx*nSx*sNx ) */
(PID.TID 0000.0001)       nY =   64 ; /* Total domain size in Y ( = nPy*nSy*sNy ) */
(PID.TID 0000.0001)   nTiles =    1 ; /* Total no. tiles per process ( = nSx*nSy ) */
(PID.TID 0000.0001)   nProcs =    1 ; /* Total no. processes ( = nPx*nPy ) */
(PID.TID 0000.0001) nThreads =    1 ; /* Total no. threads per process ( = nTx*nTy ) */
(PID.TID 0000.0001) usingMPI =    F ; /* Flag used to control whether MPI is in use */
(PID.TID 0000.0001)                   /*  note: To execute a program with MPI calls */
(PID.TID 0000.0001)                   /*  it must be launched appropriately e.g     */
(PID.TID 0000.0001)                   /*  "mpirun -np 64 ......"                    */
(PID.TID 0000.0001) 
(PID.TID 0000.0001) // ======================================================
(PID.TID 0000.0001) // Mapping of tiles to threads
(PID.TID 0000.0001) // ======================================================
(PID.TID 0000.0001) // -o- Thread   1, tiles (   1:   1,   1:   1)
(PID.TID 0000.0001) 
(PID.TID 0000.0001) // ======================================================
(PID.TID 0000.0001) // Tile <-> Tile connectvity table
(PID.TID 0000.0001) // ======================================================
(PID.TID 0000.0001) // Tile number: 000001 (process no. = 000001)
(PID.TID 0000.0001) //        WEST: Tile = 000001, Process = 000001, Comm = put
(PID.TID 0000.0001) //                bi = 000001, bj = 000001
(PID.TID 0000.0001) //        EAST: Tile = 000001, Process = 000001, Comm = put
(PID.TID 0000.0001) //                bi = 000001, bj = 000001
(PID.TID 0000.0001) //       SOUTH: Tile = 000001, Process = 000001, Comm = put
(PID.TID 0000.0001) //                bi = 000001, bj = 000001
(PID.TID 0000.0001) //       NORTH: Tile = 000001, Process = 000001, Comm = put
(PID.TID 0000.0001) //                bi = 000001, bj = 000001
(PID.TID 0000.0001) 
(PID.TID 0000.0001) // =======================================================
(PID.TID 0000.0001) // Model parameter file "data"
(PID.TID 0000.0001) // =======================================================
(PID.TID 0000.0001) ># ====================
(PID.TID 0000.0001) ># | Model parameters |
(PID.TID 0000.0001) ># ====================
(PID.TID 0000.0001) >#
(PID.TID 0000.0001) ># Continuous equation parameters
(PID.TID 0000.0001) > &PARM01
(PID.TID 0000.0001) > tRef=281.089, 289.321, 307.191, 331.377, 432.413,
(PID.TID 0000.0001) > sRef=5*0.,
(PID.TID 0000.0001) > viscAr=0.E1,
(PID.TID 0000.0001) > viscAh=0.E6,
(PID.TID 0000.0001) > viscA4=0.E17,
(PID.TID 0000.0001) > no_slip_sides=.FALSE.,
(PID.TID 0000.0001) > no_slip_bottom=.FALSE.,
(PID.TID 0000.0001) > diffKhT=0.E3,
(PID.TID 0000.0001) > diffKrT=0.,
(PID.TID 0000.0001) > diffK4T=0.E17,
(PID.TID 0000.0001) > diffKrS=0.E2,
(PID.TID 0000.0001) > diffKhS=0.E3,
(PID.TID 0000.0001) > diffK4S=0.E17,
(PID.TID 0000.0001) > buoyancyRelation='ATMOSPHERIC',
(PID.TID 0000.0001) > eosType='IDEALGAS',
(PID.TID 0000.0001) > gravity=9.81,
(PID.TID 0000.0001) > gBaro=9.81,
(PID.TID 0000.0001) > rhonil=1.0,
(PID.TID 0000.0001) > rhoConst=1.0,
(PID.TID 0000.0001) > rigidLid=.FALSE.,
(PID.TID 0000.0001) > implicitFreeSurface=.TRUE.,
(PID.TID 0000.0001) > staggerTimeStep=.TRUE.,
(PID.TID 0000.0001) > nonHydrostatic=.FALSE.,
(PID.TID 0000.0001) > readBinaryPrec=64,
(PID.TID 0000.0001) > writeBinaryPrec=64,
(PID.TID 0000.0001) > hFacMin=1.0,
(PID.TID 0000.0001) > zonal_filt_lat=45.0,
(PID.TID 0000.0001) > zonal_filt_sinpow=2,
(PID.TID 0000.0001) > zonal_filt_cospow=2,
(PID.TID 0000.0001) > &
(PID.TID 0000.0001) >
(PID.TID 0000.0001) ># Elliptic solver parameters
(PID.TID 0000.0001) > &PARM02
(PID.TID 0000.0001) > cg2dMaxIters=200,
(PID.TID 0000.0001) > cg2dTargetResidual=1.E-12,
(PID.TID 0000.0001) > &
(PID.TID 0000.0001) >
(PID.TID 0000.0001) ># Time stepping parameters
(PID.TID 0000.0001) > &PARM03
(PID.TID 0000.0001) > niter0=0,
(PID.TID 0000.0001) > nTimeSteps=10,
(PID.TID 0000.0001) > deltaT=450.0,
(PID.TID 0000.0001) > abEps=0.1,
(PID.TID 0000.0001) > cAdjFreq=0.,
(PID.TID 0000.0001) > pChkptFreq=2592000.0,
(PID.TID 0000.0001) > chkptFreq=0.0,
(PID.TID 0000.0001) > dumpFreq=2592000.0,
(PID.TID 0000.0001) > monitorFreq=1.,
(PID.TID 0000.0001) > &
(PID.TID 0000.0001) >
(PID.TID 0000.0001) ># Gridding parameters
(PID.TID 0000.0001) > &PARM04
(PID.TID 0000.0001) > usingCartesianGrid=.FALSE.,
(PID.TID 0000.0001) > usingSphericalPolarGrid=.TRUE.,
(PID.TID 0000.0001) > delX=128*2.8125,
(PID.TID 0000.0001) > delY=64*2.8125,
(PID.TID 0000.0001) > delR=1.E4, 2.5E4, 3.E4, 2.E4, 1.5E4,
(PID.TID 0000.0001) > Ro_SeaLevel=1.E5,
(PID.TID 0000.0001) > groundAtK1=.TRUE.,
(PID.TID 0000.0001) > phiMin=-90.,
(PID.TID 0000.0001) > rSphere=6370.E3,
(PID.TID 0000.0001) > &
(PID.TID 0000.0001) >
(PID.TID 0000.0001) ># Input datasets
(PID.TID 0000.0001) > &PARM05
(PID.TID 0000.0001) > &
(PID.TID 0000.0001) 
(PID.TID 0000.0001) S/R INI_PARMS ; read PARM01 : OK
(PID.TID 0000.0001) S/R INI_PARMS ; read PARM02 : OK
(PID.TID 0000.0001) S/R INI_PARMS ; read PARM03 : OK
(PID.TID 0000.0001) S/R INI_PARMS ; read PARM04 : OK
(PID.TID 0000.0001) S/R INI_PARMS ; read PARM05 : OK
(PID.TID 0000.0001) %MON XC_max                       =   3.5859375000000E+02
(PID.TID 0000.0001) %MON XC_min                       =   1.4062500000000E+00
(PID.TID 0000.0001) %MON XC_mean                      =   1.8000000000000E+02
(PID.TID 0000.0001) %MON XC_sd                        =   1.0391987692599E+02
(PID.TID 0000.0001) %MON XG_max                       =   3.5718750000000E+02
(PID.TID 0000.0001) %MON XG_min                       =   2.8125000000000E+00
(PID.TID 0000.0001) %MON XG_mean                      =   1.8000000000000E+02
(PID.TID 0000.0001) %MON XG_sd                        =   1.0310795313651E+02
(PID.TID 0000.0001) %MON DXC_max                      =   3.1259246843155E+05
(PID.TID 0000.0001) %MON DXC_min                      =   7.6737143816223E+03
(PID.TID 0000.0001) %MON DXC_mean                     =   1.9908248704234E+05
(PID.TID 0000.0001) %MON DXC_sd                       =   9.6190602240068E+04
(PID.TID 0000.0001) %MON DXF_max                      =   3.1259246843155E+05
(PID.TID 0000.0001) %MON DXF_min                      =   7.6737143816223E+03
(PID.TID 0000.0001) %MON DXF_mean                     =   1.9908248704234E+05
(PID.TID 0000.0001) %MON DXF_sd                       =   9.6190602240068E+04
(PID.TID 0000.0001) %MON DXG_max                      =   3.1268664380261E+05
(PID.TID 0000.0001) %MON DXG_min                      =   1.5342806404640E+04
(PID.TID 0000.0001) %MON DXG_mean                     =   2.0218161485138E+05
(PID.TID 0000.0001) %MON DXG_sd                       =   9.3728538420912E+04
(PID.TID 0000.0001) %MON DXV_max                      =   3.1268664380261E+05
(PID.TID 0000.0001) %MON DXV_min                      =   1.5342806404640E+04
(PID.TID 0000.0001) %MON DXV_mean                     =   2.0218161485138E+05
(PID.TID 0000.0001) %MON DXV_sd                       =   9.3728538420912E+04
(PID.TID 0000.0001) %MON YC_max                       =   8.8593750000000E+01
(PID.TID 0000.0001) %MON YC_min                       =  -8.8593750000000E+01
(PID.TID 0000.0001) %MON YC_mean                      =   0.0000000000000E+00
(PID.TID 0000.0001) %MON YC_sd                        =   5.1955180880375E+01
(PID.TID 0000.0001) %MON YG_max                       =   8.7187500000000E+01
(PID.TID 0000.0001) %MON YG_min                       =  -9.0000000000000E+01
(PID.TID 0000.0001) %MON YG_mean                      =  -1.4285714285714E+00
(PID.TID 0000.0001) %MON YG_sd                        =   5.2365595692639E+01
(PID.TID 0000.0001) %MON DYC_max                      =   3.1268664380261E+05
(PID.TID 0000.0001) %MON DYC_min                      =   3.1268664380261E+05
(PID.TID 0000.0001) %MON DYC_mean                     =   3.1268664380263E+05
(PID.TID 0000.0001) %MON DYC_sd                       =   2.4156179279089E-08
(PID.TID 0000.0001) %MON DYF_max                      =   3.1268664380261E+05
(PID.TID 0000.0001) %MON DYF_min                      =   3.1268664380261E+05
(PID.TID 0000.0001) %MON DYF_mean                     =   3.1268664380263E+05
(PID.TID 0000.0001) %MON DYF_sd                       =   2.4156179279089E-08
(PID.TID 0000.0001) %MON DYG_max                      =   3.1268664380261E+05
(PID.TID 0000.0001) %MON DYG_min                      =   3.1268664380261E+05
(PID.TID 0000.0001) %MON DYG_mean                     =   3.1268664380263E+05
(PID.TID 0000.0001) %MON DYG_sd                       =   2.4156179279089E-08
(PID.TID 0000.0001) %MON DYU_max                      =   3.1268664380261E+05
(PID.TID 0000.0001) %MON DYU_min                      =   3.1268664380261E+05
(PID.TID 0000.0001) %MON DYU_mean                     =   3.1268664380263E+05
(PID.TID 0000.0001) %MON DYU_sd                       =   2.4156179279089E-08
(PID.TID 0000.0001) %MON RA_max                       =   9.7733676797555E+10
(PID.TID 0000.0001) %MON RA_min                       =   2.3992270990191E+09
(PID.TID 0000.0001) %MON RA_mean                      =   6.2244185031957E+10
(PID.TID 0000.0001) %MON RA_sd                        =   3.0074496923945E+10
(PID.TID 0000.0001) %MON RAW_max                      =   9.7733676797555E+10
(PID.TID 0000.0001) %MON RAW_min                      =   2.3992270990191E+09
(PID.TID 0000.0001) %MON RAW_mean                     =   6.2244185031957E+10
(PID.TID 0000.0001) %MON RAW_sd                       =   3.0074496923945E+10
(PID.TID 0000.0001) %MON RAS_max                      =   9.7763121221868E+10
(PID.TID 0000.0001) %MON RAS_min                      =   4.7970089933465E+09
(PID.TID 0000.0001) %MON RAS_mean                     =   6.3213143616158E+10
(PID.TID 0000.0001) %MON RAS_sd                       =   2.9304719741649E+10
(PID.TID 0000.0001) %MON RAZ_max                      =   9.7763121221868E+10
(PID.TID 0000.0001) %MON RAZ_min                      =   4.7970089933465E+09
(PID.TID 0000.0001) %MON RAZ_mean                     =   6.3213143616158E+10
(PID.TID 0000.0001) %MON RAZ_sd                       =   2.9304719741649E+10
(PID.TID 0000.0001) // =======================================================
(PID.TID 0000.0001) // Field Model R_low (ini_masks_etc) at iteration          1
(PID.TID 0000.0001) // CMIN =          1.000000000000000E+32
(PID.TID 0000.0001) // CMAX =         -1.000000000000000E+32
(PID.TID 0000.0001) // CINT =          0.000000000000000E+00
(PID.TID 0000.0001) // SYMBOLS (CMIN->CMAX): -abcdefghijklmnopqrstuvwxyz+
(PID.TID 0000.0001) //                  0.0: .
(PID.TID 0000.0001) // RANGE I (Lo:Hi:Step):(  -4: 133:   1)
(PID.TID 0000.0001) // RANGE J (Lo:Hi:Step):(  69:  -4:  -1)
(PID.TID 0000.0001) // RANGE K (Lo:Hi:Step):(   1:   1:   1)
(PID.TID 0000.0001) // =======================================================
(PID.TID 0000.0001) K =   1
(PID.TID 0000.0001) //                I=5       I=15      I=25      I=35      I=45      I=55      I=65      I=75      I=85      I=95      I=105     I=115     I=125
(PID.TID 0000.0001) // |--J--|****01234|678901234|678901234|678901234|678901234|678901234|678901234|678901234|678901234|678901234|678901234|678901234|678901234|67890123
(PID.TID 0000.0001) //     69 ..........................................................................................................................................
(PID.TID 0000.0001) //     68 ..........................................................................................................................................
(PID.TID 0000.0001) //     67 ..........................................................................................................................................
(PID.TID 0000.0001) //     66 ..........................................................................................................................................
(PID.TID 0000.0001) //     65 ..........................................................................................................................................
(PID.TID 0000.0001) //     64 ..........................................................................................................................................
(PID.TID 0000.0001) //     63 ..........................................................................................................................................
(PID.TID 0000.0001) //     62 ..........................................................................................................................................
(PID.TID 0000.0001) //     61 ..........................................................................................................................................
(PID.TID 0000.0001) //     60 ..........................................................................................................................................
(PID.TID 0000.0001) //     59 ..........................................................................................................................................
(PID.TID 0000.0001) //     58 ..........................................................................................................................................
(PID.TID 0000.0001) //     57 ..........................................................................................................................................
(PID.TID 0000.0001) //     56 ..........................................................................................................................................
(PID.TID 0000.0001) //     55 ..........................................................................................................................................
(PID.TID 0000.0001) //     54 ..........................................................................................................................................
(PID.TID 0000.0001) //     53 ..........................................................................................................................................
(PID.TID 0000.0001) //     52 ..........................................................................................................................................
(PID.TID 0000.0001) //     51 ..........................................................................................................................................
(PID.TID 0000.0001) //     50 ..........................................................................................................................................
(PID.TID 0000.0001) //     49 ..........................................................................................................................................
(PID.TID 0000.0001) //     48 ..........................................................................................................................................
(PID.TID 0000.0001) //     47 ..........................................................................................................................................
(PID.TID 0000.0001) //     46 ..........................................................................................................................................
(PID.TID 0000.0001) //     45 ..........................................................................................................................................
(PID.TID 0000.0001) //     44 ..........................................................................................................................................
(PID.TID 0000.0001) //     43 ..........................................................................................................................................
(PID.TID 0000.0001) //     42 ..........................................................................................................................................
(PID.TID 0000.0001) //     41 ..........................................................................................................................................
(PID.TID 0000.0001) //     40 ..........................................................................................................................................
(PID.TID 0000.0001) //     39 ..........................................................................................................................................
(PID.TID 0000.0001) //     38 ..........................................................................................................................................
(PID.TID 0000.0001) //     37 ..........................................................................................................................................
(PID.TID 0000.0001) //     36 ..........................................................................................................................................
(PID.TID 0000.0001) //     35 ..........................................................................................................................................
(PID.TID 0000.0001) //     34 ..........................................................................................................................................
(PID.TID 0000.0001) //     33 ..........................................................................................................................................
(PID.TID 0000.0001) //     32 ..........................................................................................................................................
(PID.TID 0000.0001) //     31 ..........................................................................................................................................
(PID.TID 0000.0001) //     30 ..........................................................................................................................................
(PID.TID 0000.0001) //     29 ..........................................................................................................................................
(PID.TID 0000.0001) //     28 ..........................................................................................................................................
(PID.TID 0000.0001) //     27 ..........................................................................................................................................
(PID.TID 0000.0001) //     26 ..........................................................................................................................................
(PID.TID 0000.0001) //     25 ..........................................................................................................................................
(PID.TID 0000.0001) //     24 ..........................................................................................................................................
(PID.TID 0000.0001) //     23 ..........................................................................................................................................
(PID.TID 0000.0001) //     22 ..........................................................................................................................................
(PID.TID 0000.0001) //     21 ..........................................................................................................................................
(PID.TID 0000.0001) //     20 ..........................................................................................................................................
(PID.TID 0000.0001) //     19 ..........................................................................................................................................
(PID.TID 0000.0001) //     18 ..........................................................................................................................................
(PID.TID 0000.0001) //     17 ..........................................................................................................................................
(PID.TID 0000.0001) //     16 ..........................................................................................................................................
(PID.TID 0000.0001) //     15 ..........................................................................................................................................
(PID.TID 0000.0001) //     14 ..........................................................................................................................................
(PID.TID 0000.0001) //     13 ..........................................................................................................................................
(PID.TID 0000.0001) //     12 ..........................................................................................................................................
(PID.TID 0000.0001) //     11 ..........................................................................................................................................
(PID.TID 0000.0001) //     10 ..........................................................................................................................................
(PID.TID 0000.0001) //      9 ..........................................................................................................................................
(PID.TID 0000.0001) //      8 ..........................................................................................................................................
(PID.TID 0000.0001) //      7 ..........................................................................................................................................
(PID.TID 0000.0001) //      6 ..........................................................................................................................................
(PID.TID 0000.0001) //      5 ..........................................................................................................................................
(PID.TID 0000.0001) //      4 ..........................................................................................................................................
(PID.TID 0000.0001) //      3 ..........................................................................................................................................
(PID.TID 0000.0001) //      2 ..........................................................................................................................................
(PID.TID 0000.0001) //      1 ..........................................................................................................................................
(PID.TID 0000.0001) //      0 ..........................................................................................................................................
(PID.TID 0000.0001) //     -1 ..........................................................................................................................................
(PID.TID 0000.0001) //     -2 ..........................................................................................................................................
(PID.TID 0000.0001) //     -3 ..........................................................................................................................................
(PID.TID 0000.0001) //     -4 ..........................................................................................................................................
(PID.TID 0000.0001) // =======================================================
(PID.TID 0000.0001) // END OF FIELD                                          =
(PID.TID 0000.0001) // =======================================================
(PID.TID 0000.0001) 
(PID.TID 0000.0001) // =======================================================
(PID.TID 0000.0001) // Field Model Ro_surf (ini_masks_etc) at iteration          1
(PID.TID 0000.0001) // CMIN =          1.000000000000000E+05
(PID.TID 0000.0001) // CMAX =          1.000000000000000E+05
(PID.TID 0000.0001) // CINT =          0.000000000000000E+00
(PID.TID 0000.0001) // SYMBOLS (CMIN->CMAX): -abcdefghijklmnopqrstuvwxyz+
(PID.TID 0000.0001) //                  0.0: .
(PID.TID 0000.0001) // RANGE I (Lo:Hi:Step):(  -4: 133:   1)
(PID.TID 0000.0001) // RANGE J (Lo:Hi:Step):(  69:  -4:  -1)
(PID.TID 0000.0001) // RANGE K (Lo:Hi:Step):(   1:   1:   1)
(PID.TID 0000.0001) // =======================================================
(PID.TID 0000.0001) K =   1
(PID.TID 0000.0001) //                I=5       I=15      I=25      I=35      I=45      I=55      I=65      I=75      I=85      I=95      I=105     I=115     I=125
(PID.TID 0000.0001) // |--J--|****01234|678901234|678901234|678901234|678901234|678901234|678901234|678901234|678901234|678901234|678901234|678901234|678901234|67890123
(PID.TID 0000.0001) //     69 ..........................................................................................................................................
(PID.TID 0000.0001) //     68 ..........................................................................................................................................
(PID.TID 0000.0001) //     67 ..........................................................................................................................................
(PID.TID 0000.0001) //     66 ..........................................................................................................................................
(PID.TID 0000.0001) //     65 ..........................................................................................................................................
(PID.TID 0000.0001) //     64 ------------------------------------------------------------------------------------------------------------------------------------------
(PID.TID 0000.0001) //     63 ------------------------------------------------------------------------------------------------------------------------------------------
(PID.TID 0000.0001) //     62 ------------------------------------------------------------------------------------------------------------------------------------------
(PID.TID 0000.0001) //     61 ------------------------------------------------------------------------------------------------------------------------------------------
(PID.TID 0000.0001) //     60 ------------------------------------------------------------------------------------------------------------------------------------------
(PID.TID 0000.0001) //     59 ------------------------------------------------------------------------------------------------------------------------------------------
(PID.TID 0000.0001) //     58 ------------------------------------------------------------------------------------------------------------------------------------------
(PID.TID 0000.0001) //     57 ------------------------------------------------------------------------------------------------------------------------------------------
(PID.TID 0000.0001) //     56 ------------------------------------------------------------------------------------------------------------------------------------------
(PID.TID 0000.0001) //     55 ------------------------------------------------------------------------------------------------------------------------------------------
(PID.TID 0000.0001) //     54 ------------------------------------------------------------------------------------------------------------------------------------------
(PID.TID 0000.0001) //     53 ------------------------------------------------------------------------------------------------------------------------------------------
(PID.TID 0000.0001) //     52 ------------------------------------------------------------------------------------------------------------------------------------------
(PID.TID 0000.0001) //     51 ------------------------------------------------------------------------------------------------------------------------------------------
(PID.TID 0000.0001) //     50 ------------------------------------------------------------------------------------------------------------------------------------------
(PID.TID 0000.0001) //     49 ------------------------------------------------------------------------------------------------------------------------------------------
(PID.TID 0000.0001) //     48 ------------------------------------------------------------------------------------------------------------------------------------------
(PID.TID 0000.0001) //     47 ------------------------------------------------------------------------------------------------------------------------------------------
(PID.TID 0000.0001) //     46 ------------------------------------------------------------------------------------------------------------------------------------------
(PID.TID 0000.0001) //     45 ------------------------------------------------------------------------------------------------------------------------------------------
(PID.TID 0000.0001) //     44 ------------------------------------------------------------------------------------------------------------------------------------------
(PID.TID 0000.0001) //     43 ------------------------------------------------------------------------------------------------------------------------------------------
(PID.TID 0000.0001) //     42 ------------------------------------------------------------------------------------------------------------------------------------------
(PID.TID 0000.0001) //     41 ------------------------------------------------------------------------------------------------------------------------------------------
(PID.TID 0000.0001) //     40 ------------------------------------------------------------------------------------------------------------------------------------------
(PID.TID 0000.0001) //     39 ------------------------------------------------------------------------------------------------------------------------------------------
(PID.TID 0000.0001) //     38 ------------------------------------------------------------------------------------------------------------------------------------------
(PID.TID 0000.0001) //     37 ------------------------------------------------------------------------------------------------------------------------------------------
(PID.TID 0000.0001) //     36 ------------------------------------------------------------------------------------------------------------------------------------------
(PID.TID 0000.0001) //     35 ------------------------------------------------------------------------------------------------------------------------------------------
(PID.TID 0000.0001) //     34 ------------------------------------------------------------------------------------------------------------------------------------------
(PID.TID 0000.0001) //     33 ------------------------------------------------------------------------------------------------------------------------------------------
(PID.TID 0000.0001) //     32 ------------------------------------------------------------------------------------------------------------------------------------------
(PID.TID 0000.0001) //     31 ------------------------------------------------------------------------------------------------------------------------------------------
(PID.TID 0000.0001) //     30 ------------------------------------------------------------------------------------------------------------------------------------------
(PID.TID 0000.0001) //     29 ------------------------------------------------------------------------------------------------------------------------------------------
(PID.TID 0000.0001) //     28 ------------------------------------------------------------------------------------------------------------------------------------------
(PID.TID 0000.0001) //     27 ------------------------------------------------------------------------------------------------------------------------------------------
(PID.TID 0000.0001) //     26 ------------------------------------------------------------------------------------------------------------------------------------------
(PID.TID 0000.0001) //     25 ------------------------------------------------------------------------------------------------------------------------------------------
(PID.TID 0000.0001) //     24 ------------------------------------------------------------------------------------------------------------------------------------------
(PID.TID 0000.0001) //     23 ------------------------------------------------------------------------------------------------------------------------------------------
(PID.TID 0000.0001) //     22 ------------------------------------------------------------------------------------------------------------------------------------------
(PID.TID 0000.0001) //     21 ------------------------------------------------------------------------------------------------------------------------------------------
(PID.TID 0000.0001) //     20 ------------------------------------------------------------------------------------------------------------------------------------------
(PID.TID 0000.0001) //     19 ------------------------------------------------------------------------------------------------------------------------------------------
(PID.TID 0000.0001) //     18 ------------------------------------------------------------------------------------------------------------------------------------------
(PID.TID 0000.0001) //     17 ------------------------------------------------------------------------------------------------------------------------------------------
(PID.TID 0000.0001) //     16 ------------------------------------------------------------------------------------------------------------------------------------------
(PID.TID 0000.0001) //     15 ------------------------------------------------------------------------------------------------------------------------------------------
(PID.TID 0000.0001) //     14 ------------------------------------------------------------------------------------------------------------------------------------------
(PID.TID 0000.0001) //     13 ------------------------------------------------------------------------------------------------------------------------------------------
(PID.TID 0000.0001) //     12 ------------------------------------------------------------------------------------------------------------------------------------------
(PID.TID 0000.0001) //     11 ------------------------------------------------------------------------------------------------------------------------------------------
(PID.TID 0000.0001) //     10 ------------------------------------------------------------------------------------------------------------------------------------------
(PID.TID 0000.0001) //      9 ------------------------------------------------------------------------------------------------------------------------------------------
(PID.TID 0000.0001) //      8 ------------------------------------------------------------------------------------------------------------------------------------------
(PID.TID 0000.0001) //      7 ------------------------------------------------------------------------------------------------------------------------------------------
(PID.TID 0000.0001) //      6 ------------------------------------------------------------------------------------------------------------------------------------------
(PID.TID 0000.0001) //      5 ------------------------------------------------------------------------------------------------------------------------------------------
(PID.TID 0000.0001) //      4 ------------------------------------------------------------------------------------------------------------------------------------------
(PID.TID 0000.0001) //      3 ------------------------------------------------------------------------------------------------------------------------------------------
(PID.TID 0000.0001) //      2 ------------------------------------------------------------------------------------------------------------------------------------------
(PID.TID 0000.0001) //      1 ------------------------------------------------------------------------------------------------------------------------------------------
(PID.TID 0000.0001) //      0 ..........................................................................................................................................
(PID.TID 0000.0001) //     -1 ..........................................................................................................................................
(PID.TID 0000.0001) //     -2 ..........................................................................................................................................
(PID.TID 0000.0001) //     -3 ..........................................................................................................................................
(PID.TID 0000.0001) //     -4 ..........................................................................................................................................
(PID.TID 0000.0001) // =======================================================
(PID.TID 0000.0001) // END OF FIELD                                          =
(PID.TID 0000.0001) // =======================================================
(PID.TID 0000.0001) 
(PID.TID 0000.0001) // =======================================================
(PID.TID 0000.0001) // Field hFacC at iteration          1
(PID.TID 0000.0001) // CMIN =          1.000000000000000E+00
(PID.TID 0000.0001) // CMAX =          1.000000000000000E+00
(PID.TID 0000.0001) // CINT =          0.000000000000000E+00
(PID.TID 0000.0001) // SYMBOLS (CMIN->CMAX): -abcdefghijklmnopqrstuvwxyz+
(PID.TID 0000.0001) //                  0.0: .
(PID.TID 0000.0001) // RANGE I (Lo:Hi:Step):(  -4: 133:   1)
(PID.TID 0000.0001) // RANGE J (Lo:Hi:Step):(  69:  -4:  -1)
(PID.TID 0000.0001) // RANGE K (Lo:Hi:Step):(   1:   1:   1)
(PID.TID 0000.0001) // =======================================================
(PID.TID 0000.0001) K =   1
(PID.TID 0000.0001) //                I=5       I=15      I=25      I=35      I=45      I=55      I=65      I=75      I=85      I=95      I=105     I=115     I=125
(PID.TID 0000.0001) // |--J--|****01234|678901234|678901234|678901234|678901234|678901234|678901234|678901234|678901234|678901234|678901234|678901234|678901234|67890123
(PID.TID 0000.0001) //     69 ..........................................................................................................................................
(PID.TID 0000.0001) //     68 ..........................................................................................................................................
(PID.TID 0000.0001) //     67 ..........................................................................................................................................
(PID.TID 0000.0001) //     66 ..........................................................................................................................................
(PID.TID 0000.0001) //     65 ..........................................................................................................................................
(PID.TID 0000.0001) //     64 ------------------------------------------------------------------------------------------------------------------------------------------
(PID.TID 0000.0001) //     63 ------------------------------------------------------------------------------------------------------------------------------------------
(PID.TID 0000.0001) //     62 ------------------------------------------------------------------------------------------------------------------------------------------
(PID.TID 0000.0001) //     61 ------------------------------------------------------------------------------------------------------------------------------------------
(PID.TID 0000.0001) //     60 ------------------------------------------------------------------------------------------------------------------------------------------
(PID.TID 0000.0001) //     59 ------------------------------------------------------------------------------------------------------------------------------------------
(PID.TID 0000.0001) //     58 ------------------------------------------------------------------------------------------------------------------------------------------
(PID.TID 0000.0001) //     57 ------------------------------------------------------------------------------------------------------------------------------------------
(PID.TID 0000.0001) //     56 ------------------------------------------------------------------------------------------------------------------------------------------
(PID.TID 0000.0001) //     55 ------------------------------------------------------------------------------------------------------------------------------------------
(PID.TID 0000.0001) //     54 ------------------------------------------------------------------------------------------------------------------------------------------
(PID.TID 0000.0001) //     53 ------------------------------------------------------------------------------------------------------------------------------------------
(PID.TID 0000.0001) //     52 ------------------------------------------------------------------------------------------------------------------------------------------
(PID.TID 0000.0001) //     51 ------------------------------------------------------------------------------------------------------------------------------------------
(PID.TID 0000.0001) //     50 ------------------------------------------------------------------------------------------------------------------------------------------
(PID.TID 0000.0001) //     49 ------------------------------------------------------------------------------------------------------------------------------------------
(PID.TID 0000.0001) //     48 ------------------------------------------------------------------------------------------------------------------------------------------
(PID.TID 0000.0001) //     47 ------------------------------------------------------------------------------------------------------------------------------------------
(PID.TID 0000.0001) //     46 ------------------------------------------------------------------------------------------------------------------------------------------
(PID.TID 0000.0001) //     45 ------------------------------------------------------------------------------------------------------------------------------------------
(PID.TID 0000.0001) //     44 ------------------------------------------------------------------------------------------------------------------------------------------
(PID.TID 0000.0001) //     43 ------------------------------------------------------------------------------------------------------------------------------------------
(PID.TID 0000.0001) //     42 ------------------------------------------------------------------------------------------------------------------------------------------
(PID.TID 0000.0001) //     41 ------------------------------------------------------------------------------------------------------------------------------------------
(PID.TID 0000.0001) //     40 ------------------------------------------------------------------------------------------------------------------------------------------
(PID.TID 0000.0001) //     39 ------------------------------------------------------------------------------------------------------------------------------------------
(PID.TID 0000.0001) //     38 ------------------------------------------------------------------------------------------------------------------------------------------
(PID.TID 0000.0001) //     37 ------------------------------------------------------------------------------------------------------------------------------------------
(PID.TID 0000.0001) //     36 ------------------------------------------------------------------------------------------------------------------------------------------
(PID.TID 0000.0001) //     35 ------------------------------------------------------------------------------------------------------------------------------------------
(PID.TID 0000.0001) //     34 ------------------------------------------------------------------------------------------------------------------------------------------
(PID.TID 0000.0001) //     33 ------------------------------------------------------------------------------------------------------------------------------------------
(PID.TID 0000.0001) //     32 ------------------------------------------------------------------------------------------------------------------------------------------
(PID.TID 0000.0001) //     31 ------------------------------------------------------------------------------------------------------------------------------------------
(PID.TID 0000.0001) //     30 ------------------------------------------------------------------------------------------------------------------------------------------
(PID.TID 0000.0001) //     29 ------------------------------------------------------------------------------------------------------------------------------------------
(PID.TID 0000.0001) //     28 ------------------------------------------------------------------------------------------------------------------------------------------
(PID.TID 0000.0001) //     27 ------------------------------------------------------------------------------------------------------------------------------------------
(PID.TID 0000.0001) //     26 ------------------------------------------------------------------------------------------------------------------------------------------
(PID.TID 0000.0001) //     25 ------------------------------------------------------------------------------------------------------------------------------------------
(PID.TID 0000.0001) //     24 ------------------------------------------------------------------------------------------------------------------------------------------
(PID.TID 0000.0001) //     23 ------------------------------------------------------------------------------------------------------------------------------------------
(PID.TID 0000.0001) //     22 ------------------------------------------------------------------------------------------------------------------------------------------
(PID.TID 0000.0001) //     21 ------------------------------------------------------------------------------------------------------------------------------------------
(PID.TID 0000.0001) //     20 ------------------------------------------------------------------------------------------------------------------------------------------
(PID.TID 0000.0001) //     19 ------------------------------------------------------------------------------------------------------------------------------------------
(PID.TID 0000.0001) //     18 ------------------------------------------------------------------------------------------------------------------------------------------
(PID.TID 0000.0001) //     17 ------------------------------------------------------------------------------------------------------------------------------------------
(PID.TID 0000.0001) //     16 ------------------------------------------------------------------------------------------------------------------------------------------
(PID.TID 0000.0001) //     15 ------------------------------------------------------------------------------------------------------------------------------------------
(PID.TID 0000.0001) //     14 ------------------------------------------------------------------------------------------------------------------------------------------
(PID.TID 0000.0001) //     13 ------------------------------------------------------------------------------------------------------------------------------------------
(PID.TID 0000.0001) //     12 ------------------------------------------------------------------------------------------------------------------------------------------
(PID.TID 0000.0001) //     11 ------------------------------------------------------------------------------------------------------------------------------------------
(PID.TID 0000.0001) //     10 ------------------------------------------------------------------------------------------------------------------------------------------
(PID.TID 0000.0001) //      9 ------------------------------------------------------------------------------------------------------------------------------------------
(PID.TID 0000.0001) //      8 ------------------------------------------------------------------------------------------------------------------------------------------
(PID.TID 0000.0001) //      7 ------------------------------------------------------------------------------------------------------------------------------------------
(PID.TID 0000.0001) //      6 ------------------------------------------------------------------------------------------------------------------------------------------
(PID.TID 0000.0001) //      5 ------------------------------------------------------------------------------------------------------------------------------------------
(PID.TID 0000.0001) //      4 ------------------------------------------------------------------------------------------------------------------------------------------
(PID.TID 0000.0001) //      3 ------------------------------------------------------------------------------------------------------------------------------------------
(PID.TID 0000.0001) //      2 ------------------------------------------------------------------------------------------------------------------------------------------
(PID.TID 0000.0001) //      1 ------------------------------------------------------------------------------------------------------------------------------------------
(PID.TID 0000.0001) //      0 ..........................................................................................................................................
(PID.TID 0000.0001) //     -1 ..........................................................................................................................................
(PID.TID 0000.0001) //     -2 ..........................................................................................................................................
(PID.TID 0000.0001) //     -3 ..........................................................................................................................................
(PID.TID 0000.0001) //     -4 ..........................................................................................................................................
(PID.TID 0000.0001) // =======================================================
(PID.TID 0000.0001) // END OF FIELD                                          =
(PID.TID 0000.0001) // =======================================================
(PID.TID 0000.0001) 
(PID.TID 0000.0001) // =======================================================
(PID.TID 0000.0001) // Field hFacW at iteration          1
(PID.TID 0000.0001) // CMIN =          1.000000000000000E+00
(PID.TID 0000.0001) // CMAX =          1.000000000000000E+00
(PID.TID 0000.0001) // CINT =          0.000000000000000E+00
(PID.TID 0000.0001) // SYMBOLS (CMIN->CMAX): -abcdefghijklmnopqrstuvwxyz+
(PID.TID 0000.0001) //                  0.0: .
(PID.TID 0000.0001) // RANGE I (Lo:Hi:Step):(  -4: 133:   1)
(PID.TID 0000.0001) // RANGE J (Lo:Hi:Step):(  69:  -4:  -1)
(PID.TID 0000.0001) // RANGE K (Lo:Hi:Step):(   1:   1:   1)
(PID.TID 0000.0001) // =======================================================
(PID.TID 0000.0001) K =   1
(PID.TID 0000.0001) //                I=5       I=15      I=25      I=35      I=45      I=55      I=65      I=75      I=85      I=95      I=105     I=115     I=125
(PID.TID 0000.0001) // |--J--|****01234|678901234|678901234|678901234|678901234|678901234|678901234|678901234|678901234|678901234|678901234|678901234|678901234|67890123
(PID.TID 0000.0001) //     69 ------------------------------------------------------------------------------------------------------------------------------------------
(PID.TID 0000.0001) //     68 ------------------------------------------------------------------------------------------------------------------------------------------
(PID.TID 0000.0001) //     67 ------------------------------------------------------------------------------------------------------------------------------------------
(PID.TID 0000.0001) //     66 ------------------------------------------------------------------------------------------------------------------------------------------
(PID.TID 0000.0001) //     65 ------------------------------------------------------------------------------------------------------------------------------------------
(PID.TID 0000.0001) //     64 ------------------------------------------------------------------------------------------------------------------------------------------
(PID.TID 0000.0001) //     63 ------------------------------------------------------------------------------------------------------------------------------------------
(PID.TID 0000.0001) //     62 ------------------------------------------------------------------------------------------------------------------------------------------
(PID.TID 0000.0001) //     61 ------------------------------------------------------------------------------------------------------------------------------------------
(PID.TID 0000.0001) //     60 ------------------------------------------------------------------------------------------------------------------------------------------
(PID.TID 0000.0001) //     59 ------------------------------------------------------------------------------------------------------------------------------------------
(PID.TID 0000.0001) //     58 ------------------------------------------------------------------------------------------------------------------------------------------
(PID.TID 0000.0001) //     57 ------------------------------------------------------------------------------------------------------------------------------------------
(PID.TID 0000.0001) //     56 ------------------------------------------------------------------------------------------------------------------------------------------
(PID.TID 0000.0001) //     55 ------------------------------------------------------------------------------------------------------------------------------------------
(PID.TID 0000.0001) //     54 ------------------------------------------------------------------------------------------------------------------------------------------
(PID.TID 0000.0001) //     53 ------------------------------------------------------------------------------------------------------------------------------------------
(PID.TID 0000.0001) //     52 ------------------------------------------------------------------------------------------------------------------------------------------
(PID.TID 0000.0001) //     51 ------------------------------------------------------------------------------------------------------------------------------------------
(PID.TID 0000.0001) //     50 ------------------------------------------------------------------------------------------------------------------------------------------
(PID.TID 0000.0001) //     49 ------------------------------------------------------------------------------------------------------------------------------------------
(PID.TID 0000.0001) //     48 ------------------------------------------------------------------------------------------------------------------------------------------
(PID.TID 0000.0001) //     47 ------------------------------------------------------------------------------------------------------------------------------------------
(PID.TID 0000.0001) //     46 ------------------------------------------------------------------------------------------------------------------------------------------
(PID.TID 0000.0001) //     45 ------------------------------------------------------------------------------------------------------------------------------------------
(PID.TID 0000.0001) //     44 ------------------------------------------------------------------------------------------------------------------------------------------
(PID.TID 0000.0001) //     43 ------------------------------------------------------------------------------------------------------------------------------------------
(PID.TID 0000.0001) //     42 ------------------------------------------------------------------------------------------------------------------------------------------
(PID.TID 0000.0001) //     41 ------------------------------------------------------------------------------------------------------------------------------------------
(PID.TID 0000.0001) //     40 ------------------------------------------------------------------------------------------------------------------------------------------
(PID.TID 0000.0001) //     39 ------------------------------------------------------------------------------------------------------------------------------------------
(PID.TID 0000.0001) //     38 ------------------------------------------------------------------------------------------------------------------------------------------
(PID.TID 0000.0001) //     37 ------------------------------------------------------------------------------------------------------------------------------------------
(PID.TID 0000.0001) //     36 ------------------------------------------------------------------------------------------------------------------------------------------
(PID.TID 0000.0001) //     35 ------------------------------------------------------------------------------------------------------------------------------------------
(PID.TID 0000.0001) //     34 ------------------------------------------------------------------------------------------------------------------------------------------
(PID.TID 0000.0001) //     33 ------------------------------------------------------------------------------------------------------------------------------------------
(PID.TID 0000.0001) //     32 ------------------------------------------------------------------------------------------------------------------------------------------
(PID.TID 0000.0001) //     31 ------------------------------------------------------------------------------------------------------------------------------------------
(PID.TID 0000.0001) //     30 ------------------------------------------------------------------------------------------------------------------------------------------
(PID.TID 0000.0001) //     29 ------------------------------------------------------------------------------------------------------------------------------------------
(PID.TID 0000.0001) //     28 ------------------------------------------------------------------------------------------------------------------------------------------
(PID.TID 0000.0001) //     27 ------------------------------------------------------------------------------------------------------------------------------------------
(PID.TID 0000.0001) //     26 ------------------------------------------------------------------------------------------------------------------------------------------
(PID.TID 0000.0001) //     25 ------------------------------------------------------------------------------------------------------------------------------------------
(PID.TID 0000.0001) //     24 ------------------------------------------------------------------------------------------------------------------------------------------
(PID.TID 0000.0001) //     23 ------------------------------------------------------------------------------------------------------------------------------------------
(PID.TID 0000.0001) //     22 ------------------------------------------------------------------------------------------------------------------------------------------
(PID.TID 0000.0001) //     21 ------------------------------------------------------------------------------------------------------------------------------------------
(PID.TID 0000.0001) //     20 ------------------------------------------------------------------------------------------------------------------------------------------
(PID.TID 0000.0001) //     19 ------------------------------------------------------------------------------------------------------------------------------------------
(PID.TID 0000.0001) //     18 ------------------------------------------------------------------------------------------------------------------------------------------
(PID.TID 0000.0001) //     17 ------------------------------------------------------------------------------------------------------------------------------------------
(PID.TID 0000.0001) //     16 ------------------------------------------------------------------------------------------------------------------------------------------
(PID.TID 0000.0001) //     15 ------------------------------------------------------------------------------------------------------------------------------------------
(PID.TID 0000.0001) //     14 ------------------------------------------------------------------------------------------------------------------------------------------
(PID.TID 0000.0001) //     13 ------------------------------------------------------------------------------------------------------------------------------------------
(PID.TID 0000.0001) //     12 ------------------------------------------------------------------------------------------------------------------------------------------
(PID.TID 0000.0001) //     11 ------------------------------------------------------------------------------------------------------------------------------------------
(PID.TID 0000.0001) //     10 ------------------------------------------------------------------------------------------------------------------------------------------
(PID.TID 0000.0001) //      9 ------------------------------------------------------------------------------------------------------------------------------------------
(PID.TID 0000.0001) //      8 ------------------------------------------------------------------------------------------------------------------------------------------
(PID.TID 0000.0001) //      7 ------------------------------------------------------------------------------------------------------------------------------------------
(PID.TID 0000.0001) //      6 ------------------------------------------------------------------------------------------------------------------------------------------
(PID.TID 0000.0001) //      5 ------------------------------------------------------------------------------------------------------------------------------------------
(PID.TID 0000.0001) //      4 ------------------------------------------------------------------------------------------------------------------------------------------
(PID.TID 0000.0001) //      3 ------------------------------------------------------------------------------------------------------------------------------------------
(PID.TID 0000.0001) //      2 ------------------------------------------------------------------------------------------------------------------------------------------
(PID.TID 0000.0001) //      1 ------------------------------------------------------------------------------------------------------------------------------------------
(PID.TID 0000.0001) //      0 ------------------------------------------------------------------------------------------------------------------------------------------
(PID.TID 0000.0001) //     -1 ------------------------------------------------------------------------------------------------------------------------------------------
(PID.TID 0000.0001) //     -2 ------------------------------------------------------------------------------------------------------------------------------------------
(PID.TID 0000.0001) //     -3 ------------------------------------------------------------------------------------------------------------------------------------------
(PID.TID 0000.0001) //     -4 ------------------------------------------------------------------------------------------------------------------------------------------
(PID.TID 0000.0001) // =======================================================
(PID.TID 0000.0001) // END OF FIELD                                          =
(PID.TID 0000.0001) // =======================================================
(PID.TID 0000.0001) 
(PID.TID 0000.0001) // =======================================================
(PID.TID 0000.0001) // Field hFacS at iteration          1
(PID.TID 0000.0001) // CMIN =          1.000000000000000E+00
(PID.TID 0000.0001) // CMAX =          1.000000000000000E+00
(PID.TID 0000.0001) // CINT =          0.000000000000000E+00
(PID.TID 0000.0001) // SYMBOLS (CMIN->CMAX): -abcdefghijklmnopqrstuvwxyz+
(PID.TID 0000.0001) //                  0.0: .
(PID.TID 0000.0001) // RANGE I (Lo:Hi:Step):(  -4: 133:   1)
(PID.TID 0000.0001) // RANGE J (Lo:Hi:Step):(  69:  -4:  -1)
(PID.TID 0000.0001) // RANGE K (Lo:Hi:Step):(   1:   1:   1)
(PID.TID 0000.0001) // =======================================================
(PID.TID 0000.0001) K =   1
(PID.TID 0000.0001) //                I=5       I=15      I=25      I=35      I=45      I=55      I=65      I=75      I=85      I=95      I=105     I=115     I=125
(PID.TID 0000.0001) // |--J--|****01234|678901234|678901234|678901234|678901234|678901234|678901234|678901234|678901234|678901234|678901234|678901234|678901234|67890123
(PID.TID 0000.0001) //     69 ..........................................................................................................................................
(PID.TID 0000.0001) //     68 ..........................................................................................................................................
(PID.TID 0000.0001) //     67 ..........................................................................................................................................
(PID.TID 0000.0001) //     66 ..........................................................................................................................................
(PID.TID 0000.0001) //     65 ..........................................................................................................................................
(PID.TID 0000.0001) //     64 ------------------------------------------------------------------------------------------------------------------------------------------
(PID.TID 0000.0001) //     63 ------------------------------------------------------------------------------------------------------------------------------------------
(PID.TID 0000.0001) //     62 ------------------------------------------------------------------------------------------------------------------------------------------
(PID.TID 0000.0001) //     61 ------------------------------------------------------------------------------------------------------------------------------------------
(PID.TID 0000.0001) //     60 ------------------------------------------------------------------------------------------------------------------------------------------
(PID.TID 0000.0001) //     59 ------------------------------------------------------------------------------------------------------------------------------------------
(PID.TID 0000.0001) //     58 ------------------------------------------------------------------------------------------------------------------------------------------
(PID.TID 0000.0001) //     57 ------------------------------------------------------------------------------------------------------------------------------------------
(PID.TID 0000.0001) //     56 ------------------------------------------------------------------------------------------------------------------------------------------
(PID.TID 0000.0001) //     55 ------------------------------------------------------------------------------------------------------------------------------------------
(PID.TID 0000.0001) //     54 ------------------------------------------------------------------------------------------------------------------------------------------
(PID.TID 0000.0001) //     53 ------------------------------------------------------------------------------------------------------------------------------------------
(PID.TID 0000.0001) //     52 ------------------------------------------------------------------------------------------------------------------------------------------
(PID.TID 0000.0001) //     51 ------------------------------------------------------------------------------------------------------------------------------------------
(PID.TID 0000.0001) //     50 ------------------------------------------------------------------------------------------------------------------------------------------
(PID.TID 0000.0001) //     49 ------------------------------------------------------------------------------------------------------------------------------------------
(PID.TID 0000.0001) //     48 ------------------------------------------------------------------------------------------------------------------------------------------
(PID.TID 0000.0001) //     47 ------------------------------------------------------------------------------------------------------------------------------------------
(PID.TID 0000.0001) //     46 ------------------------------------------------------------------------------------------------------------------------------------------
(PID.TID 0000.0001) //     45 ------------------------------------------------------------------------------------------------------------------------------------------
(PID.TID 0000.0001) //     44 ------------------------------------------------------------------------------------------------------------------------------------------
(PID.TID 0000.0001) //     43 ------------------------------------------------------------------------------------------------------------------------------------------
(PID.TID 0000.0001) //     42 ------------------------------------------------------------------------------------------------------------------------------------------
(PID.TID 0000.0001) //     41 ------------------------------------------------------------------------------------------------------------------------------------------
(PID.TID 0000.0001) //     40 ------------------------------------------------------------------------------------------------------------------------------------------
(PID.TID 0000.0001) //     39 ------------------------------------------------------------------------------------------------------------------------------------------
(PID.TID 0000.0001) //     38 ------------------------------------------------------------------------------------------------------------------------------------------
(PID.TID 0000.0001) //     37 ------------------------------------------------------------------------------------------------------------------------------------------
(PID.TID 0000.0001) //     36 ------------------------------------------------------------------------------------------------------------------------------------------
(PID.TID 0000.0001) //     35 ------------------------------------------------------------------------------------------------------------------------------------------
(PID.TID 0000.0001) //     34 ------------------------------------------------------------------------------------------------------------------------------------------
(PID.TID 0000.0001) //     33 ------------------------------------------------------------------------------------------------------------------------------------------
(PID.TID 0000.0001) //     32 ------------------------------------------------------------------------------------------------------------------------------------------
(PID.TID 0000.0001) //     31 ------------------------------------------------------------------------------------------------------------------------------------------
(PID.TID 0000.0001) //     30 ------------------------------------------------------------------------------------------------------------------------------------------
(PID.TID 0000.0001) //     29 ------------------------------------------------------------------------------------------------------------------------------------------
(PID.TID 0000.0001) //     28 ------------------------------------------------------------------------------------------------------------------------------------------
(PID.TID 0000.0001) //     27 ------------------------------------------------------------------------------------------------------------------------------------------
(PID.TID 0000.0001) //     26 ------------------------------------------------------------------------------------------------------------------------------------------
(PID.TID 0000.0001) //     25 ------------------------------------------------------------------------------------------------------------------------------------------
(PID.TID 0000.0001) //     24 ------------------------------------------------------------------------------------------------------------------------------------------
(PID.TID 0000.0001) //     23 ------------------------------------------------------------------------------------------------------------------------------------------
(PID.TID 0000.0001) //     22 ------------------------------------------------------------------------------------------------------------------------------------------
(PID.TID 0000.0001) //     21 ------------------------------------------------------------------------------------------------------------------------------------------
(PID.TID 0000.0001) //     20 ------------------------------------------------------------------------------------------------------------------------------------------
(PID.TID 0000.0001) //     19 ------------------------------------------------------------------------------------------------------------------------------------------
(PID.TID 0000.0001) //     18 ------------------------------------------------------------------------------------------------------------------------------------------
(PID.TID 0000.0001) //     17 ------------------------------------------------------------------------------------------------------------------------------------------
(PID.TID 0000.0001) //     16 ------------------------------------------------------------------------------------------------------------------------------------------
(PID.TID 0000.0001) //     15 ------------------------------------------------------------------------------------------------------------------------------------------
(PID.TID 0000.0001) //     14 ------------------------------------------------------------------------------------------------------------------------------------------
(PID.TID 0000.0001) //     13 ------------------------------------------------------------------------------------------------------------------------------------------
(PID.TID 0000.0001) //     12 ------------------------------------------------------------------------------------------------------------------------------------------
(PID.TID 0000.0001) //     11 ------------------------------------------------------------------------------------------------------------------------------------------
(PID.TID 0000.0001) //     10 ------------------------------------------------------------------------------------------------------------------------------------------
(PID.TID 0000.0001) //      9 ------------------------------------------------------------------------------------------------------------------------------------------
(PID.TID 0000.0001) //      8 ------------------------------------------------------------------------------------------------------------------------------------------
(PID.TID 0000.0001) //      7 ------------------------------------------------------------------------------------------------------------------------------------------
(PID.TID 0000.0001) //      6 ------------------------------------------------------------------------------------------------------------------------------------------
(PID.TID 0000.0001) //      5 ------------------------------------------------------------------------------------------------------------------------------------------
[...]
(PID.TID 0000.0001) %MON dynstat_theta_sd             =   4.5614636975681E+01
(PID.TID 0000.0001) %MON dynstat_theta_del2           =   4.3408019234296E-02
(PID.TID 0000.0001) %MON dynstat_salt_max             =   0.0000000000000E+00
(PID.TID 0000.0001) %MON dynstat_salt_min             =   0.0000000000000E+00
(PID.TID 0000.0001) %MON dynstat_salt_mean            =   0.0000000000000E+00
(PID.TID 0000.0001) %MON dynstat_salt_sd              =   0.0000000000000E+00
(PID.TID 0000.0001) %MON dynstat_salt_del2            =   0.0000000000000E+00
(PID.TID 0000.0001) %MON advcfl_uvel_max              =   5.6866361208020E-03
(PID.TID 0000.0001) %MON advcfl_vvel_max              =   1.8626483641289E-02
(PID.TID 0000.0001) %MON advcfl_wvel_max              =   2.3510956525089E-02
(PID.TID 0000.0001) %MON advcfl_W_hf_max              =   2.3366795475424E-02
(PID.TID 0000.0001) %MON ke_max                       =   8.4298969048468E+01
(PID.TID 0000.0001) %MON ke_mean                      =   1.1576082486157E+01
(PID.TID 0000.0001) %MON ke_volint                    =   6.3634829655812E+20
(PID.TID 0000.0001) %MON ke_volmean                   =   1.2479757808670E+01
(PID.TID 0000.0001) // =======================================================
(PID.TID 0000.0001) // End MONITOR dynamic field statistics
(PID.TID 0000.0001) // =======================================================
 cg2d: Sum(rhs),rhsMax =   2.31425295593723E-12  5.48791398783487E+01
(PID.TID 0000.0001)                    cg2d_init_res =    1.05558752064488E+01
(PID.TID 0000.0001)                       cg2d_iters =    75
(PID.TID 0000.0001)                         cg2d_res =    7.94173637392556E-13
(PID.TID 0000.0001) // =======================================================
(PID.TID 0000.0001) // Begin MONITOR dynamic field statistics
(PID.TID 0000.0001) // =======================================================
(PID.TID 0000.0001) %MON time_tsnumber                =                     8
(PID.TID 0000.0001) %MON time_secondsf                =   3.6000000000000E+03
(PID.TID 0000.0001) %MON time_secondsi                =                  3600
(PID.TID 0000.0001) %MON dynstat_eta_max              =   7.0583361379563E+02
(PID.TID 0000.0001) %MON dynstat_eta_min              =  -4.6184988675936E+02
(PID.TID 0000.0001) %MON dynstat_eta_mean             =  -2.2053579350162E-13
(PID.TID 0000.0001) %MON dynstat_eta_sd               =   3.7719496462806E+02
(PID.TID 0000.0001) %MON dynstat_eta_del2             =   2.7540142707872E+00
(PID.TID 0000.0001) %MON dynstat_uvel_max             =   2.3608081904083E+00
(PID.TID 0000.0001) %MON dynstat_uvel_min             =  -2.5860136281420E-03
(PID.TID 0000.0001) %MON dynstat_uvel_mean            =   6.5326423221760E-01
(PID.TID 0000.0001) %MON dynstat_uvel_sd              =   6.4193352570275E-01
(PID.TID 0000.0001) %MON dynstat_uvel_del2            =   6.2598615561567E-03
(PID.TID 0000.0001) %MON dynstat_vvel_max             =   1.4518339282250E+01
(PID.TID 0000.0001) %MON dynstat_vvel_min             =  -1.4518508369725E+01
(PID.TID 0000.0001) %MON dynstat_vvel_mean            =   1.6826324967213E-06
(PID.TID 0000.0001) %MON dynstat_vvel_sd              =   5.5886840706672E+00
(PID.TID 0000.0001) %MON dynstat_vvel_del2            =   2.8397937256334E-02
(PID.TID 0000.0001) %MON dynstat_wvel_max             =   2.9965962980875E-01
(PID.TID 0000.0001) %MON dynstat_wvel_min             =  -1.9724706249821E-01
(PID.TID 0000.0001) %MON dynstat_wvel_mean            =  -2.3785504461231E-17
(PID.TID 0000.0001) %MON dynstat_wvel_sd              =   1.2828501469276E-01
(PID.TID 0000.0001) %MON dynstat_wvel_del2            =   1.7570818994932E-03
(PID.TID 0000.0001) %MON dynstat_theta_max            =   4.2028593844932E+02
(PID.TID 0000.0001) %MON dynstat_theta_min            =   2.5503619106708E+02
(PID.TID 0000.0001) %MON dynstat_theta_mean           =   3.1873701054099E+02
(PID.TID 0000.0001) %MON dynstat_theta_sd             =   4.5606295591128E+01
(PID.TID 0000.0001) %MON dynstat_theta_del2           =   4.3836706167813E-02
(PID.TID 0000.0001) %MON dynstat_salt_max             =   0.0000000000000E+00
(PID.TID 0000.0001) %MON dynstat_salt_min             =   0.0000000000000E+00
(PID.TID 0000.0001) %MON dynstat_salt_mean            =   0.0000000000000E+00
(PID.TID 0000.0001) %MON dynstat_salt_sd              =   0.0000000000000E+00
(PID.TID 0000.0001) %MON dynstat_salt_del2            =   0.0000000000000E+00
(PID.TID 0000.0001) %MON advcfl_uvel_max              =   7.4285135374906E-03
(PID.TID 0000.0001) %MON advcfl_vvel_max              =   2.0894172795243E-02
(PID.TID 0000.0001) %MON advcfl_wvel_max              =   2.6969366682787E-02
(PID.TID 0000.0001) %MON advcfl_W_hf_max              =   2.6822391381712E-02
(PID.TID 0000.0001) %MON ke_max                       =   1.0718665208410E+02
(PID.TID 0000.0001) %MON ke_mean                      =   1.4881809176214E+01
(PID.TID 0000.0001) %MON ke_volint                    =   8.1720871881130E+20
(PID.TID 0000.0001) %MON ke_volmean                   =   1.6026705728703E+01
(PID.TID 0000.0001) // =======================================================
(PID.TID 0000.0001) // End MONITOR dynamic field statistics
(PID.TID 0000.0001) // =======================================================
 cg2d: Sum(rhs),rhsMax =   5.59004231792670E-13  6.80760095670753E+01
(PID.TID 0000.0001)                    cg2d_init_res =    9.40285179373966E+00
(PID.TID 0000.0001)                       cg2d_iters =    74
(PID.TID 0000.0001)                         cg2d_res =    7.50197075812964E-13
(PID.TID 0000.0001) // =======================================================
(PID.TID 0000.0001) // Begin MONITOR dynamic field statistics
(PID.TID 0000.0001) // =======================================================
(PID.TID 0000.0001) %MON time_tsnumber                =                     9
(PID.TID 0000.0001) %MON time_secondsf                =   4.0500000000000E+03
(PID.TID 0000.0001) %MON time_secondsi                =                  4050
(PID.TID 0000.0001) %MON dynstat_eta_max              =   8.7219009430451E+02
(PID.TID 0000.0001) %MON dynstat_eta_min              =  -5.7294034371561E+02
(PID.TID 0000.0001) %MON dynstat_eta_mean             =  -3.3283481657600E-13
(PID.TID 0000.0001) %MON dynstat_eta_sd               =   4.6656464480137E+02
(PID.TID 0000.0001) %MON dynstat_eta_del2             =   2.9822044501068E+00
(PID.TID 0000.0001) %MON dynstat_uvel_max             =   2.9596996007069E+00
(PID.TID 0000.0001) %MON dynstat_uvel_min             =  -1.0616667971554E-02
(PID.TID 0000.0001) %MON dynstat_uvel_mean            =   8.2115461727669E-01
(PID.TID 0000.0001) %MON dynstat_uvel_sd              =   8.0935895669943E-01
(PID.TID 0000.0001) %MON dynstat_uvel_del2            =   7.7500139022711E-03
(PID.TID 0000.0001) %MON dynstat_vvel_max             =   1.6021204242268E+01
(PID.TID 0000.0001) %MON dynstat_vvel_min             =  -1.6021381580555E+01
(PID.TID 0000.0001) %MON dynstat_vvel_mean            =   1.8495950853895E-06
(PID.TID 0000.0001) %MON dynstat_vvel_sd              =   6.2056968387914E+00
(PID.TID 0000.0001) %MON dynstat_vvel_del2            =   3.0304667123824E-02
(PID.TID 0000.0001) %MON dynstat_wvel_max             =   3.3590264150477E-01
(PID.TID 0000.0001) %MON dynstat_wvel_min             =  -2.2265579143436E-01
(PID.TID 0000.0001) %MON dynstat_wvel_mean            =   1.4905437645165E-17
(PID.TID 0000.0001) %MON dynstat_wvel_sd              =   1.4433600887529E-01
(PID.TID 0000.0001) %MON dynstat_wvel_del2            =   1.7792347982257E-03
(PID.TID 0000.0001) %MON dynstat_theta_max            =   4.2050600797688E+02
(PID.TID 0000.0001) %MON dynstat_theta_min            =   2.5503623769714E+02
(PID.TID 0000.0001) %MON dynstat_theta_mean           =   3.1875229198898E+02
(PID.TID 0000.0001) %MON dynstat_theta_sd             =   4.5596990162584E+01
(PID.TID 0000.0001) %MON dynstat_theta_del2           =   4.4313464855602E-02
(PID.TID 0000.0001) %MON dynstat_salt_max             =   0.0000000000000E+00
(PID.TID 0000.0001) %MON dynstat_salt_min             =   0.0000000000000E+00
(PID.TID 0000.0001) %MON dynstat_salt_mean            =   0.0000000000000E+00
(PID.TID 0000.0001) %MON dynstat_salt_sd              =   0.0000000000000E+00
(PID.TID 0000.0001) %MON dynstat_salt_del2            =   0.0000000000000E+00
(PID.TID 0000.0001) %MON advcfl_uvel_max              =   9.3837413507322E-03
(PID.TID 0000.0001) %MON advcfl_vvel_max              =   2.3057018437285E-02
(PID.TID 0000.0001) %MON advcfl_wvel_max              =   3.0231237735429E-02
(PID.TID 0000.0001) %MON advcfl_W_hf_max              =   3.0089114387550E-02
(PID.TID 0000.0001) %MON ke_max                       =   1.3193157365293E+02
(PID.TID 0000.0001) %MON ke_mean                      =   1.8508275197984E+01
(PID.TID 0000.0001) %MON ke_volint                    =   1.0151389261359E+21
(PID.TID 0000.0001) %MON ke_volmean                   =   1.9908418092500E+01
(PID.TID 0000.0001) // =======================================================
(PID.TID 0000.0001) // End MONITOR dynamic field statistics
(PID.TID 0000.0001) // =======================================================
 cg2d: Sum(rhs),rhsMax =  -3.95482258053192E-13  8.25182355023033E+01
(PID.TID 0000.0001)                    cg2d_init_res =    8.45345212435066E+00
(PID.TID 0000.0001)                       cg2d_iters =    73
(PID.TID 0000.0001)                         cg2d_res =    8.93692244369249E-13
(PID.TID 0000.0001) // =======================================================
(PID.TID 0000.0001) // Begin MONITOR dynamic field statistics
(PID.TID 0000.0001) // =======================================================
(PID.TID 0000.0001) %MON time_tsnumber                =                    10
(PID.TID 0000.0001) %MON time_secondsf                =   4.5000000000000E+03
(PID.TID 0000.0001) %MON time_secondsi                =                  4500
(PID.TID 0000.0001) %MON dynstat_eta_max              =   1.0525573215414E+03
(PID.TID 0000.0001) %MON dynstat_eta_min              =  -6.9450639136419E+02
(PID.TID 0000.0001) %MON dynstat_eta_mean             =  -9.5027159832850E-14
(PID.TID 0000.0001) %MON dynstat_eta_sd               =   5.6401352504754E+02
(PID.TID 0000.0001) %MON dynstat_eta_del2             =   3.1837276159146E+00
(PID.TID 0000.0001) %MON dynstat_uvel_max             =   3.6171503116297E+00
(PID.TID 0000.0001) %MON dynstat_uvel_min             =  -2.7047066479772E-02
(PID.TID 0000.0001) %MON dynstat_uvel_mean            =   1.0054808533119E+00
(PID.TID 0000.0001) %MON dynstat_uvel_sd              =   9.9434295886620E-01
(PID.TID 0000.0001) %MON dynstat_uvel_del2            =   9.3525972860674E-03
(PID.TID 0000.0001) %MON dynstat_vvel_max             =   1.7448579125329E+01
(PID.TID 0000.0001) %MON dynstat_vvel_min             =  -1.7448747196124E+01
(PID.TID 0000.0001) %MON dynstat_vvel_mean            =   1.9802830910423E-06
(PID.TID 0000.0001) %MON dynstat_vvel_sd              =   6.7964081503237E+00
(PID.TID 0000.0001) %MON dynstat_vvel_del2            =   3.1748058782677E-02
(PID.TID 0000.0001) %MON dynstat_wvel_max             =   3.6971403358807E-01
(PID.TID 0000.0001) %MON dynstat_wvel_min             =  -2.4702897546253E-01
(PID.TID 0000.0001) %MON dynstat_wvel_mean            =   4.3796814155593E-17
(PID.TID 0000.0001) %MON dynstat_wvel_sd              =   1.5973556209582E-01
(PID.TID 0000.0001) %MON dynstat_wvel_del2            =   1.7725700377487E-03
(PID.TID 0000.0001) %MON dynstat_theta_max            =   4.2073497454205E+02
(PID.TID 0000.0001) %MON dynstat_theta_min            =   2.5503628064591E+02
(PID.TID 0000.0001) %MON dynstat_theta_mean           =   3.1876905546742E+02
(PID.TID 0000.0001) %MON dynstat_theta_sd             =   4.5586766865407E+01
(PID.TID 0000.0001) %MON dynstat_theta_del2           =   4.4806532367973E-02
(PID.TID 0000.0001) %MON dynstat_salt_max             =   0.0000000000000E+00
(PID.TID 0000.0001) %MON dynstat_salt_min             =   0.0000000000000E+00
(PID.TID 0000.0001) %MON dynstat_salt_mean            =   0.0000000000000E+00
(PID.TID 0000.0001) %MON dynstat_salt_sd              =   0.0000000000000E+00
(PID.TID 0000.0001) %MON dynstat_salt_del2            =   0.0000000000000E+00
(PID.TID 0000.0001) %MON advcfl_uvel_max              =   1.1544266344278E-02
(PID.TID 0000.0001) %MON advcfl_vvel_max              =   2.5111198044047E-02
(PID.TID 0000.0001) %MON advcfl_wvel_max              =   3.3274263022926E-02
(PID.TID 0000.0001) %MON advcfl_W_hf_max              =   3.3145564858078E-02
(PID.TID 0000.0001) %MON ke_max                       =   1.5826021607434E+02
(PID.TID 0000.0001) %MON ke_mean                      =   2.2417861915821E+01
(PID.TID 0000.0001) %MON ke_volint                    =   1.2279275645747E+21
(PID.TID 0000.0001) %MON ke_volmean                   =   2.4081526886090E+01
(PID.TID 0000.0001) // =======================================================
(PID.TID 0000.0001) // End MONITOR dynamic field statistics
(PID.TID 0000.0001) // =======================================================
(PID.TID 0000.0001)   Seconds in section "ALL                [THE_MODEL_MAIN]":
(PID.TID 0000.0001)           User time:  21.6499998
(PID.TID 0000.0001)         System time:  0.159999996
(PID.TID 0000.0001)     Wall clock time:  21.826213
(PID.TID 0000.0001)          No. starts: 1
(PID.TID 0000.0001)           No. stops: 1
(PID.TID 0000.0001)   Seconds in section "INITIALISE_FIXED   [THE_MODEL_MAIN]":
(PID.TID 0000.0001)           User time:  0.610000005
(PID.TID 0000.0001)         System time:  0.0199999996
(PID.TID 0000.0001)     Wall clock time:  0.628793001
(PID.TID 0000.0001)          No. starts: 1
(PID.TID 0000.0001)           No. stops: 1
(PID.TID 0000.0001)   Seconds in section "THE_MAIN_LOOP      [THE_MODEL_MAIN]":
(PID.TID 0000.0001)           User time:  20.6999997
(PID.TID 0000.0001)         System time:  0.120000001
(PID.TID 0000.0001)     Wall clock time:  20.837374
(PID.TID 0000.0001)          No. starts: 1
(PID.TID 0000.0001)           No. stops: 1
(PID.TID 0000.0001)   Seconds in section "INITIALISE_VARIA    [THE_MAIN_LOOP]":
(PID.TID 0000.0001)           User time:  1.9799999
(PID.TID 0000.0001)         System time:  0.0500000007
(PID.TID 0000.0001)     Wall clock time:  2.03667998
(PID.TID 0000.0001)          No. starts: 1
(PID.TID 0000.0001)           No. stops: 1
(PID.TID 0000.0001)   Seconds in section "WRITE_STATE         [THE_MAIN_LOOP]":
(PID.TID 0000.0001)           User time:  0.140000105
(PID.TID 0000.0001)         System time:  0.0200000033
(PID.TID 0000.0001)     Wall clock time:  0.154164076
(PID.TID 0000.0001)          No. starts: 1
(PID.TID 0000.0001)           No. stops: 1
(PID.TID 0000.0001)   Seconds in section "MONITOR             [THE_MAIN_LOOP]":
(PID.TID 0000.0001)           User time:  0.170000076
(PID.TID 0000.0001)         System time:  0.
(PID.TID 0000.0001)     Wall clock time:  0.171440005
(PID.TID 0000.0001)          No. starts: 1
(PID.TID 0000.0001)           No. stops: 1
(PID.TID 0000.0001)   Seconds in section "MAIN LOOP           [THE_MAIN_LOOP]":
(PID.TID 0000.0001)           User time:  18.4099996
(PID.TID 0000.0001)         System time:  0.049999997
(PID.TID 0000.0001)     Wall clock time:  18.474633
(PID.TID 0000.0001)          No. starts: 1
(PID.TID 0000.0001)           No. stops: 1
(PID.TID 0000.0001)   Seconds in section "FORWARD_STEP        [THE_MAIN_LOOP]":
(PID.TID 0000.0001)           User time:  18.4099996
(PID.TID 0000.0001)         System time:  0.049999997
(PID.TID 0000.0001)     Wall clock time:  18.4736791
(PID.TID 0000.0001)          No. starts: 10
(PID.TID 0000.0001)           No. stops: 10
(PID.TID 0000.0001)   Seconds in section "EXTERNAL_FIELDS_LOAD[THE_MAIN_LOOP]":
(PID.TID 0000.0001)           User time:  0.
(PID.TID 0000.0001)         System time:  0.
(PID.TID 0000.0001)     Wall clock time:  0.000868082047
(PID.TID 0000.0001)          No. starts: 10
(PID.TID 0000.0001)           No. stops: 10
(PID.TID 0000.0001)   Seconds in section "THERMODYNAMICS      [THE_MAIN_LOOP]":
(PID.TID 0000.0001)           User time:  2.63000154
(PID.TID 0000.0001)         System time:  0.
(PID.TID 0000.0001)     Wall clock time:  2.63961291
(PID.TID 0000.0001)          No. starts: 10
(PID.TID 0000.0001)           No. stops: 10
(PID.TID 0000.0001)   Seconds in section "DYNAMICS            [THE_MAIN_LOOP]":
(PID.TID 0000.0001)           User time:  3.88000083
(PID.TID 0000.0001)         System time:  0.0299999937
(PID.TID 0000.0001)     Wall clock time:  3.92199969
(PID.TID 0000.0001)          No. starts: 10
(PID.TID 0000.0001)           No. stops: 10
(PID.TID 0000.0001)   Seconds in section "SOLVE_FOR_PRESSURE  [THE_MAIN_LOOP]":
(PID.TID 0000.0001)           User time:  6.049999
(PID.TID 0000.0001)         System time:  0.00999999791
(PID.TID 0000.0001)     Wall clock time:  6.06300414
(PID.TID 0000.0001)          No. starts: 10
(PID.TID 0000.0001)           No. stops: 10
(PID.TID 0000.0001)   Seconds in section "THE_CORRECTION_STEP [THE_MAIN_LOOP]":
(PID.TID 0000.0001)           User time:  2.78999853
(PID.TID 0000.0001)         System time:  0.0100000054
(PID.TID 0000.0001)     Wall clock time:  2.80731213
(PID.TID 0000.0001)          No. starts: 10
(PID.TID 0000.0001)           No. stops: 10
(PID.TID 0000.0001)   Seconds in section "BLOCKING_EXCHANGES  [THE_MAIN_LOOP]":
(PID.TID 0000.0001)           User time:  0.0600008965
(PID.TID 0000.0001)         System time:  0.
(PID.TID 0000.0001)     Wall clock time:  0.0529748201
(PID.TID 0000.0001)          No. starts: 10
(PID.TID 0000.0001)           No. stops: 10
(PID.TID 0000.0001)   Seconds in section "DO_THE_MODEL_IO     [THE_MAIN_LOOP]":
(PID.TID 0000.0001)           User time:  0.149999619
(PID.TID 0000.0001)         System time:  0.
(PID.TID 0000.0001)     Wall clock time:  0.152658105
(PID.TID 0000.0001)          No. starts: 10
(PID.TID 0000.0001)           No. stops: 10
(PID.TID 0000.0001)   Seconds in section "WRITE_CHECKPOINT    [THE_MAIN_LOOP]":
(PID.TID 0000.0001)           User time:  0.
(PID.TID 0000.0001)         System time:  0.
(PID.TID 0000.0001)     Wall clock time:  0.000880002975
(PID.TID 0000.0001)          No. starts: 10
(PID.TID 0000.0001)           No. stops: 10
(PID.TID 0000.0001)   Seconds in section "WRITE_CHECKPOINT   [THE_MODEL_MAIN]":
(PID.TID 0000.0001)           User time:  0.340000153
(PID.TID 0000.0001)         System time:  0.0199999958
(PID.TID 0000.0001)     Wall clock time:  0.359628081
(PID.TID 0000.0001)          No. starts: 1
(PID.TID 0000.0001)           No. stops: 1
(PID.TID 0000.0001) // ======================================================
(PID.TID 0000.0001) // Tile <-> Tile communication statistics
(PID.TID 0000.0001) // ======================================================
(PID.TID 0000.0001) // o Tile number: 000001
(PID.TID 0000.0001) //         No. X exchanges =              0
(PID.TID 0000.0001) //            Max. X spins =              0
(PID.TID 0000.0001) //            Min. X spins =     1000000000
(PID.TID 0000.0001) //          Total. X spins =              0
(PID.TID 0000.0001) //            Avg. X spins =       0.00E+00
(PID.TID 0000.0001) //         No. Y exchanges =              0
(PID.TID 0000.0001) //            Max. Y spins =              0
(PID.TID 0000.0001) //            Min. Y spins =     1000000000
(PID.TID 0000.0001) //          Total. Y spins =              0
(PID.TID 0000.0001) //            Avg. Y spins =       0.00E+00
(PID.TID 0000.0001) // o Thread number: 000001
(PID.TID 0000.0001) //            No. barriers =          12505
(PID.TID 0000.0001) //      Max. barrier spins =              1
(PID.TID 0000.0001) //      Min. barrier spins =              1
(PID.TID 0000.0001) //     Total barrier spins =          12505
(PID.TID 0000.0001) //      Avg. barrier spins =       1.00E+00
