(PID.TID 0000.0001) 
(PID.TID 0000.0001) // ======================================================
(PID.TID 0000.0001) //                      MITgcm UV
(PID.TID 0000.0001) //                      =========
(PID.TID 0000.0001) // ======================================================
(PID.TID 0000.0001) // execution environment starting up...
(PID.TID 0000.0001) 
(PID.TID 0000.0001) // MITgcmUV version:  checkpoint68l
(PID.TID 0000.0001) // Build user:        mlosch
(PID.TID 0000.0001) // Build host:        bkli04m056
(PID.TID 0000.0001) // Build date:        Thu Sep 14 11:45:34 CEST 2023
(PID.TID 0000.0001) 
(PID.TID 0000.0001) // =======================================================
(PID.TID 0000.0001) // Execution Environment parameter file "eedata"
(PID.TID 0000.0001) // =======================================================
(PID.TID 0000.0001) ># Example "eedata" file
(PID.TID 0000.0001) ># Lines beginning "#" are comments
(PID.TID 0000.0001) ># nTx - No. threads per process in X
(PID.TID 0000.0001) ># nTy - No. threads per process in Y
(PID.TID 0000.0001) > &EEPARMS
(PID.TID 0000.0001) > nTx=1,
(PID.TID 0000.0001) > nTy=1,
(PID.TID 0000.0001) > /
(PID.TID 0000.0001) ># Note: Some systems use & as the
(PID.TID 0000.0001) ># namelist terminator. Other systems
(PID.TID 0000.0001) ># use a / character (as shown here).
(PID.TID 0000.0001) 
(PID.TID 0000.0001) // =======================================================
(PID.TID 0000.0001) // Computational Grid Specification ( see files "SIZE.h" )
(PID.TID 0000.0001) //                                  ( and "eedata"       )
(PID.TID 0000.0001) // =======================================================
(PID.TID 0000.0001)      nPx =    1 ; /* No. processes in X */
(PID.TID 0000.0001)      nPy =    1 ; /* No. processes in Y */
(PID.TID 0000.0001)      nSx =    1 ; /* No. tiles in X per process */
(PID.TID 0000.0001)      nSy =    4 ; /* No. tiles in Y per process */
(PID.TID 0000.0001)      sNx =    1 ; /* Tile size in X */
(PID.TID 0000.0001)      sNy =   14 ; /* Tile size in Y */
(PID.TID 0000.0001)      OLx =    3 ; /* Tile overlap distance in X */
(PID.TID 0000.0001)      OLy =    3 ; /* Tile overlap distance in Y */
(PID.TID 0000.0001)      nTx =    1 ; /* No. threads in X per process */
(PID.TID 0000.0001)      nTy =    1 ; /* No. threads in Y per process */
(PID.TID 0000.0001)       Nr =   15 ; /* No. levels in the vertical   */
(PID.TID 0000.0001)       Nx =    1 ; /* Total domain size in X ( = nPx*nSx*sNx ) */
(PID.TID 0000.0001)       Ny =   56 ; /* Total domain size in Y ( = nPy*nSy*sNy ) */
(PID.TID 0000.0001)   nTiles =    4 ; /* Total no. tiles per process ( = nSx*nSy ) */
(PID.TID 0000.0001)   nProcs =    1 ; /* Total no. processes ( = nPx*nPy ) */
(PID.TID 0000.0001) nThreads =    1 ; /* Total no. threads per process ( = nTx*nTy ) */
(PID.TID 0000.0001) usingMPI =    F ; /* Flag used to control whether MPI is in use */
(PID.TID 0000.0001)                   /*  note: To execute a program with MPI calls */
(PID.TID 0000.0001)                   /*  it must be launched appropriately e.g     */
(PID.TID 0000.0001)                   /*  "mpirun -np 64 ......"                    */
(PID.TID 0000.0001) useCoupler=   F ; /* Flag used to control communications with   */
(PID.TID 0000.0001)                   /*  other model components, through a coupler */
(PID.TID 0000.0001) useNest2W_parent =    F ;/* Control 2-W Nesting comm */
(PID.TID 0000.0001) useNest2W_child  =    F ;/* Control 2-W Nesting comm */
(PID.TID 0000.0001) debugMode =    F ; /* print debug msg. (sequence of S/R calls)  */
(PID.TID 0000.0001) printMapIncludesZeros=    F ; /* print zeros in Std.Output maps */
(PID.TID 0000.0001) maxLengthPrt1D=   65 /* maxLength of 1D array printed to StdOut */
(PID.TID 0000.0001) 
(PID.TID 0000.0001) // ======================================================
(PID.TID 0000.0001) // Mapping of tiles to threads
(PID.TID 0000.0001) // ======================================================
(PID.TID 0000.0001) // -o- Thread   1, tiles (   1:   1,   1:   4)
(PID.TID 0000.0001) 
(PID.TID 0000.0001) // ======================================================
(PID.TID 0000.0001) // Tile <-> Tile connectvity table
(PID.TID 0000.0001) // ======================================================
(PID.TID 0000.0001) // Tile number: 000001 (process no. = 000000)
(PID.TID 0000.0001) //        WEST: Tile = 000001, Process = 000000, Comm = put
(PID.TID 0000.0001) //                bi = 000001, bj = 000001
(PID.TID 0000.0001) //        EAST: Tile = 000001, Process = 000000, Comm = put
(PID.TID 0000.0001) //                bi = 000001, bj = 000001
(PID.TID 0000.0001) //       SOUTH: Tile = 000004, Process = 000000, Comm = put
(PID.TID 0000.0001) //                bi = 000001, bj = 000004
(PID.TID 0000.0001) //       NORTH: Tile = 000002, Process = 000000, Comm = put
(PID.TID 0000.0001) //                bi = 000001, bj = 000002
(PID.TID 0000.0001) // Tile number: 000002 (process no. = 000000)
(PID.TID 0000.0001) //        WEST: Tile = 000002, Process = 000000, Comm = put
(PID.TID 0000.0001) //                bi = 000001, bj = 000002
(PID.TID 0000.0001) //        EAST: Tile = 000002, Process = 000000, Comm = put
(PID.TID 0000.0001) //                bi = 000001, bj = 000002
(PID.TID 0000.0001) //       SOUTH: Tile = 000001, Process = 000000, Comm = put
(PID.TID 0000.0001) //                bi = 000001, bj = 000001
(PID.TID 0000.0001) //       NORTH: Tile = 000003, Process = 000000, Comm = put
(PID.TID 0000.0001) //                bi = 000001, bj = 000003
(PID.TID 0000.0001) // Tile number: 000003 (process no. = 000000)
(PID.TID 0000.0001) //        WEST: Tile = 000003, Process = 000000, Comm = put
(PID.TID 0000.0001) //                bi = 000001, bj = 000003
(PID.TID 0000.0001) //        EAST: Tile = 000003, Process = 000000, Comm = put
(PID.TID 0000.0001) //                bi = 000001, bj = 000003
(PID.TID 0000.0001) //       SOUTH: Tile = 000002, Process = 000000, Comm = put
(PID.TID 0000.0001) //                bi = 000001, bj = 000002
(PID.TID 0000.0001) //       NORTH: Tile = 000004, Process = 000000, Comm = put
(PID.TID 0000.0001) //                bi = 000001, bj = 000004
(PID.TID 0000.0001) // Tile number: 000004 (process no. = 000000)
(PID.TID 0000.0001) //        WEST: Tile = 000004, Process = 000000, Comm = put
(PID.TID 0000.0001) //                bi = 000001, bj = 000004
(PID.TID 0000.0001) //        EAST: Tile = 000004, Process = 000000, Comm = put
(PID.TID 0000.0001) //                bi = 000001, bj = 000004
(PID.TID 0000.0001) //       SOUTH: Tile = 000003, Process = 000000, Comm = put
(PID.TID 0000.0001) //                bi = 000001, bj = 000003
(PID.TID 0000.0001) //       NORTH: Tile = 000001, Process = 000000, Comm = put
(PID.TID 0000.0001) //                bi = 000001, bj = 000001
(PID.TID 0000.0001) 
(PID.TID 0000.0001)  INI_PARMS: opening model parameter file "data"
(PID.TID 0000.0001)  OPEN_COPY_DATA_FILE: opening file data
(PID.TID 0000.0001) // =======================================================
(PID.TID 0000.0001) // Parameter file "data"
(PID.TID 0000.0001) // =======================================================
(PID.TID 0000.0001) ># ====================
(PID.TID 0000.0001) ># | Model parameters |
(PID.TID 0000.0001) ># ====================
(PID.TID 0000.0001) >#
(PID.TID 0000.0001) ># Continuous equation parameters
(PID.TID 0000.0001) > &PARM01
(PID.TID 0000.0001) > tRef= 18.8, 16.3, 13.1, 10.4, 8.1, 6.0, 4.5,
(PID.TID 0000.0001) >      3.4, 2.7, 2.2, 1.8, 1.5, 1.2, 1.0, 0.9,
(PID.TID 0000.0001) > sRef= 15*34.7,
(PID.TID 0000.0001) > cosPower=1.,
(PID.TID 0000.0001) > viscAr=1.E-3,
(PID.TID 0000.0001) > viscAh=12.E5,
(PID.TID 0000.0001) > no_slip_sides=.FALSE.,
(PID.TID 0000.0001) > no_slip_bottom=.TRUE.,
(PID.TID 0000.0001) > bottomDragLinear=1.E-3,
(PID.TID 0000.0001) >#diffK4T=2.E12,
(PID.TID 0000.0001) > diffKhT=0.E3,
(PID.TID 0000.0001) > diffKrNrT=1.E-4, 14*1.E-5,
(PID.TID 0000.0001) > ivdc_kappa=100.,
(PID.TID 0000.0001) > implicitDiffusion=.TRUE.,
(PID.TID 0000.0001) > eosType='LINEAR',
(PID.TID 0000.0001) > tAlpha=2.E-4,
(PID.TID 0000.0001) > sBeta =0.E-4,
(PID.TID 0000.0001) > saltStepping=.FALSE.,
(PID.TID 0000.0001) > gravity=9.81,
(PID.TID 0000.0001) > rhonil=1035.,
(PID.TID 0000.0001) > implicitFreeSurface=.TRUE.,
(PID.TID 0000.0001) > exactConserv=.TRUE.,
(PID.TID 0000.0001) > staggerTimeStep=.TRUE.,
(PID.TID 0000.0001) > useCDscheme=.TRUE.,
(PID.TID 0000.0001) > readBinaryPrec=64,
(PID.TID 0000.0001) > tempAdvScheme=77,
(PID.TID 0000.0001) > usePickupBeforeC54=.TRUE.,
(PID.TID 0000.0001) > /
(PID.TID 0000.0001) >
(PID.TID 0000.0001) ># Elliptic solver parameters
(PID.TID 0000.0001) > &PARM02
(PID.TID 0000.0001) > cg2dMaxIters=1000,
(PID.TID 0000.0001) >#cg2dTargetResidual=1.E-13,
(PID.TID 0000.0001) > cg2dTargetResWunit=1.E-17,
(PID.TID 0000.0001) > /
(PID.TID 0000.0001) >
(PID.TID 0000.0001) ># Time stepping parameters
(PID.TID 0000.0001) > &PARM03
(PID.TID 0000.0001) > niter0=36000,
(PID.TID 0000.0001) > nTimeSteps=20,
(PID.TID 0000.0001) >#endTime=3110400000.,
(PID.TID 0000.0001) > deltaTmom=1200.0,
(PID.TID 0000.0001) > deltaTfreesurf=3600.0,
(PID.TID 0000.0001) > deltaTtracer=86400.0,
(PID.TID 0000.0001) > deltaTClock =86400.0,
(PID.TID 0000.0001) > abEps=0.1,
(PID.TID 0000.0001) > tauCD=321428.,
(PID.TID 0000.0001) > tauThetaClimRelax=2592000.0,
(PID.TID 0000.0001) > pickupStrictlyMatch=.FALSE.,
(PID.TID 0000.0001) > chkptFreq=0.0,
(PID.TID 0000.0001) > pChkptFreq=3110400000.0,
(PID.TID 0000.0001) > taveFreq=1555200000.0,
(PID.TID 0000.0001) > dumpFreq=1555200000.0,
(PID.TID 0000.0001) > diagFreq=1555200000.0,
(PID.TID 0000.0001) >#monitorFreq=31104000.0,
(PID.TID 0000.0001) > monitorFreq=1.0,
(PID.TID 0000.0001) > monitorSelect=2,
(PID.TID 0000.0001) > /
(PID.TID 0000.0001) >
(PID.TID 0000.0001) ># Gridding parameters
(PID.TID 0000.0001) > &PARM04
(PID.TID 0000.0001) > usingSphericalPolarGrid=.TRUE.,
(PID.TID 0000.0001) > delRc= 20.,  60.,  85., 120., 165., 215., 265., 315.,
(PID.TID 0000.0001) >       365., 415., 465., 515., 565., 615., 665., 350.,
(PID.TID 0000.0001) > ygOrigin=-84.,
(PID.TID 0000.0001) > delY=56*3.,
(PID.TID 0000.0001) > delX=1*3.,
(PID.TID 0000.0001) > /
(PID.TID 0000.0001) >
(PID.TID 0000.0001) ># Input datasets
(PID.TID 0000.0001) > &PARM05
(PID.TID 0000.0001) > bathyFile='topo_sl.bin',
(PID.TID 0000.0001) > zonalWindFile='taux_sl.bin',
(PID.TID 0000.0001) > thetaClimFile='sst_sl.bin',
(PID.TID 0000.0001) > /
(PID.TID 0000.0001) 
(PID.TID 0000.0001)  INI_PARMS ; starts to read PARM01
(PID.TID 0000.0001)  INI_PARMS ; read PARM01 : OK
(PID.TID 0000.0001)  INI_PARMS ; starts to read PARM02
(PID.TID 0000.0001)  INI_PARMS ; read PARM02 : OK
(PID.TID 0000.0001)  INI_PARMS ; starts to read PARM03
(PID.TID 0000.0001)  INI_PARMS ; read PARM03 : OK
(PID.TID 0000.0001)  INI_PARMS ; starts to read PARM04
(PID.TID 0000.0001)  INI_PARMS ; read PARM04 : OK
(PID.TID 0000.0001)  INI_PARMS ; starts to read PARM05
(PID.TID 0000.0001)  INI_PARMS ; read PARM05 : OK
(PID.TID 0000.0001)  INI_PARMS: finished reading file "data"
(PID.TID 0000.0001)  PACKAGES_BOOT: opening data.pkg
(PID.TID 0000.0001)  OPEN_COPY_DATA_FILE: opening file data.pkg
(PID.TID 0000.0001) // =======================================================
(PID.TID 0000.0001) // Parameter file "data.pkg"
(PID.TID 0000.0001) // =======================================================
(PID.TID 0000.0001) ># Packages
(PID.TID 0000.0001) > &PACKAGES
(PID.TID 0000.0001) > useGMRedi=.TRUE.,
(PID.TID 0000.0001) > useDiagnostics=.TRUE.,
(PID.TID 0000.0001) > useMNC=.TRUE.,
(PID.TID 0000.0001) > /
(PID.TID 0000.0001) >
(PID.TID 0000.0001) 
(PID.TID 0000.0001)  PACKAGES_BOOT: finished reading data.pkg
(PID.TID 0000.0001)  PACKAGES_BOOT: On/Off package Summary
 --------  pkgs with a standard "usePKG" On/Off switch in "data.pkg":  --------
 pkg/gmredi               compiled   and   used ( useGMRedi                = T )
 pkg/diagnostics          compiled   and   used ( useDiagnostics           = T )
 pkg/mnc                  compiled   and   used ( useMNC                   = T )
 -------- pkgs without standard "usePKG" On/Off switch in "data.pkg":  --------
 pkg/generic_advdiff      compiled   and   used ( useGAD                   = T )
 pkg/mom_common           compiled   and   used ( momStepping              = T )
 pkg/mom_vecinv           compiled but not used ( +vectorInvariantMomentum = F )
 pkg/mom_fluxform         compiled   and   used ( & not vectorInvariantMom = T )
 pkg/cd_code              compiled   and   used ( useCDscheme              = T )
 pkg/monitor              compiled   and   used ( monitorFreq > 0.         = T )
 pkg/timeave              compiled   and   used ( taveFreq > 0.            = T )
 pkg/debug                compiled but not used ( debugMode                = F )
 pkg/rw                   compiled   and   used
 pkg/mdsio                compiled   and   used
(PID.TID 0000.0001)  PACKAGES_BOOT: End of package Summary
(PID.TID 0000.0001) 
(PID.TID 0000.0001)  MNC_READPARMS: opening file 'data.mnc'
(PID.TID 0000.0001)  OPEN_COPY_DATA_FILE: opening file data.mnc
(PID.TID 0000.0001) // =======================================================
(PID.TID 0000.0001) // Parameter file "data.mnc"
(PID.TID 0000.0001) // =======================================================
(PID.TID 0000.0001) ># Example "data.mnc" file
(PID.TID 0000.0001) ># Lines beginning "#" are comments
(PID.TID 0000.0001) > &MNC_01
(PID.TID 0000.0001) ># mnc_echo_gvtypes=.FALSE.,
(PID.TID 0000.0001) ># mnc_use_indir=.FALSE.,
(PID.TID 0000.0001) > mnc_use_outdir=.TRUE.,
(PID.TID 0000.0001) > mnc_outdir_str='mnc_test_',
(PID.TID 0000.0001) >#mnc_outdir_date=.TRUE.,
(PID.TID 0000.0001) > monitor_mnc=.FALSE.,
(PID.TID 0000.0001) >#snapshot_mnc=.FALSE.,
(PID.TID 0000.0001) >#timeave_mnc=.FALSE.,
(PID.TID 0000.0001) > pickup_read_mnc=.FALSE.,
(PID.TID 0000.0001) > pickup_write_mnc=.FALSE.,
(PID.TID 0000.0001) > /
(PID.TID 0000.0001) ># Note: Some systems use & as the
(PID.TID 0000.0001) ># namelist terminator. Other systems
(PID.TID 0000.0001) ># use a / character (as shown here).
(PID.TID 0000.0001) 
(PID.TID 0000.0001)  MNC_READPARMS: finished reading data.mnc
(PID.TID 0000.0001)  GM_READPARMS: opening data.gmredi
(PID.TID 0000.0001)  OPEN_COPY_DATA_FILE: opening file data.gmredi
(PID.TID 0000.0001) // =======================================================
(PID.TID 0000.0001) // Parameter file "data.gmredi"
(PID.TID 0000.0001) // =======================================================
(PID.TID 0000.0001) ># from MOM
(PID.TID 0000.0001) ># GM_background_K: 	isopycnal diffusion coefficien
(PID.TID 0000.0001) ># GM_maxSlope:		max slope of isopycnals
(PID.TID 0000.0001) ># GM_Scrit:		transition for scaling diffusion coefficient
(PID.TID 0000.0001) ># GM_Sd:		half width scaling for diffusion coefficient
(PID.TID 0000.0001) ># real background diff:	horizontal diffusion
(PID.TID 0000.0001) >
(PID.TID 0000.0001) > &GM_PARM01
(PID.TID 0000.0001) >  GM_AdvForm=.TRUE.,
(PID.TID 0000.0001) ># GM_AdvSeparate=.TRUE.,
(PID.TID 0000.0001) ># GM_background_K=1000.,
(PID.TID 0000.0001) >  GM_background_K=10.,
(PID.TID 0000.0001) ># GM_isopycK=1000.,
(PID.TID 0000.0001) ># GM_taper_scheme    = 'clipping',
(PID.TID 0000.0001) >  GM_taper_scheme    = 'linear',
(PID.TID 0000.0001) ># GM_taper_scheme    = 'gkw91',
(PID.TID 0000.0001) ># GM_taper_scheme    = 'ldd97',
(PID.TID 0000.0001) >  GM_Small_Number    = 1.e-18,
(PID.TID 0000.0001) >  GM_maxSlope        = 1.e-2,
(PID.TID 0000.0001) >  GM_Scrit           = 4.e-3,
(PID.TID 0000.0001) >  GM_Sd              = 1.e-3,
(PID.TID 0000.0001) ># GEOM params (lmbda 1.16e-7 s-1 = 100 days-1)
(PID.TID 0000.0001) >  GM_useGEOM         = .TRUE.,
(PID.TID 0000.0001) >  GEOM_lmbda         = 1.16e-7,
(PID.TID 0000.0001) >  GEOM_alpha         = 0.08,
(PID.TID 0000.0001) >  GEOM_minval_K      = 50.,
(PID.TID 0000.0001) >  GEOM_maxval_K      = 2.e+4,
(PID.TID 0000.0001) >  ene_init           = 1.e-2,
(PID.TID 0000.0001) >  ene_kappa          = 500.,
(PID.TID 0000.0001) >  ene_local          = .TRUE.,
(PID.TID 0000.0001) >  vert_struc         = .TRUE.,
(PID.TID 0000.0001) >  GEOM_pickup_write_mdsio = .TRUE.,
(PID.TID 0000.0001) >  GEOM_pickup_read_mdsio  = .TRUE.,
(PID.TID 0000.0001) > /
(PID.TID 0000.0001) 
(PID.TID 0000.0001)  GM_READPARMS: finished reading data.gmredi
GMREDI_READPARAMS: read pickup option on, no init of GEOM_ene_old
(PID.TID 0000.0001)  DIAGNOSTICS_READPARMS: opening data.diagnostics
(PID.TID 0000.0001)  OPEN_COPY_DATA_FILE: opening file data.diagnostics
(PID.TID 0000.0001) // =======================================================
(PID.TID 0000.0001) // Parameter file "data.diagnostics"
(PID.TID 0000.0001) // =======================================================
(PID.TID 0000.0001) ># Diagnostic Package Choices
(PID.TID 0000.0001) >#--------------------
(PID.TID 0000.0001) >#  dumpAtLast (logical): always write output at the end of simulation (default=F)
(PID.TID 0000.0001) >#  diag_mnc   (logical): write to NetCDF files (default=useMNC)
(PID.TID 0000.0001) >#--for each output-stream:
(PID.TID 0000.0001) >#  fileName(n) : prefix of the output file name (max 80c long) for outp.stream n
(PID.TID 0000.0001) >#  frequency(n):< 0 : write snap-shot output every |frequency| seconds
(PID.TID 0000.0001) >#               > 0 : write time-average output every frequency seconds
(PID.TID 0000.0001) >#  timePhase(n)     : write at time = timePhase + multiple of |frequency|
(PID.TID 0000.0001) >#    averagingFreq  : frequency (in s) for periodic averaging interval
(PID.TID 0000.0001) >#    averagingPhase : phase     (in s) for periodic averaging interval
(PID.TID 0000.0001) >#    repeatCycle    : number of averaging intervals in 1 cycle
(PID.TID 0000.0001) >#  levels(:,n) : list of levels to write to file (Notes: declared as REAL)
(PID.TID 0000.0001) >#                when this entry is missing, select all common levels of this list
(PID.TID 0000.0001) >#  fields(:,n) : list of selected diagnostics fields (8.c) in outp.stream n
(PID.TID 0000.0001) >#                (see "available_diagnostics.log" file for the full list of diags)
(PID.TID 0000.0001) >#  missing_value(n) : missing value for real-type fields in output file "n"
(PID.TID 0000.0001) >#  fileFlags(n)     : specific code (8c string) for output file "n"
(PID.TID 0000.0001) >#--------------------
(PID.TID 0000.0001) > &DIAGNOSTICS_LIST
(PID.TID 0000.0001) ># diag_mnc     = .FALSE.,
(PID.TID 0000.0001) >  fields(1:6,1)  = 'ETAN    ','ETANSQ  ','DETADT2 ','PHIBOT  ','PHIBOTSQ',
(PID.TID 0000.0001) >                   'GM_VisbK',
(PID.TID 0000.0001) >   levels(1,1) = 1.,
(PID.TID 0000.0001) >   fileName(1) = 'surfDiag',
(PID.TID 0000.0001) >  fileFlags(1) = 'D       ',
(PID.TID 0000.0001) >  frequency(1) = -864000.,
(PID.TID 0000.0001) ># do not specify levels => all levels are selected
(PID.TID 0000.0001) >  fields(1:12,2) = 'UVEL    ','VVEL    ','WVEL    ','PHIHYD  ',
(PID.TID 0000.0001) >                   'VVELMASS',
(PID.TID 0000.0001) >                   'THETA   ','VTHMASS ','WTHMASS ',
(PID.TID 0000.0001) >#                  'SALT    ','USLTMASS','VSLTMASS','WSLTMASS',
(PID.TID 0000.0001) >                   'THETASQ ','UVELSQ  ',
(PID.TID 0000.0001) >                   'UV_VEL_Z','WU_VEL  ',
(PID.TID 0000.0001) >   fileName(2) = 'dynDiag',
(PID.TID 0000.0001) >  frequency(2) = 1728000.,
(PID.TID 0000.0001) >  fields(1:7,3)  = 'DRHODR  ','RHOAnoma',
(PID.TID 0000.0001) >                   'GM_PsiY ','GM_Kvy  ','GM_Kvz  ','GM_Kwy  ','GM_Kwz  ',
(PID.TID 0000.0001) >  levels(1:12,3) = 2., 3., 4., 5., 6., 7., 8., 9., 10., 11., 12., 13.,
(PID.TID 0000.0001) >   fileName(3) = 'oceDiag',
(PID.TID 0000.0001) >  frequency(3) = 864000.,
(PID.TID 0000.0001) >  fields(1:5,4)  = 'ADVy_TH ','ADVr_TH ',
(PID.TID 0000.0001) >                   'DFyE_TH ','DFrE_TH ',
(PID.TID 0000.0001) >                   'DFrI_TH ',
(PID.TID 0000.0001) >#                  'ADVx_SLT',
(PID.TID 0000.0001) >   fileName(4) = 'flxDiag',
(PID.TID 0000.0001) >  frequency(4) = 1728000.,
(PID.TID 0000.0001) > /
(PID.TID 0000.0001) >
(PID.TID 0000.0001) >#--------------------
(PID.TID 0000.0001) ># Parameter for Diagnostics of per level statistics:
(PID.TID 0000.0001) >#--------------------
(PID.TID 0000.0001) >#  diagSt_mnc (logical): write stat-diags to NetCDF files (default=diag_mnc)
(PID.TID 0000.0001) >#  diagSt_regMaskFile : file containing the region-mask to read-in
(PID.TID 0000.0001) >#  nSetRegMskFile   : number of region-mask sets within the region-mask file
(PID.TID 0000.0001) >#  set_regMask(i)   : region-mask set-index that identifies the region "i"
(PID.TID 0000.0001) >#  val_regMask(i)   : region "i" identifier value in the region mask
(PID.TID 0000.0001) >#--for each output-stream:
(PID.TID 0000.0001) >#  stat_fName(n) : prefix of the output file name (max 80c long) for outp.stream n
(PID.TID 0000.0001) >#  stat_freq(n):< 0 : write snap-shot output every |stat_freq| seconds
(PID.TID 0000.0001) >#               > 0 : write time-average output every stat_freq seconds
(PID.TID 0000.0001) >#  stat_phase(n)    : write at time = stat_phase + multiple of |stat_freq|
(PID.TID 0000.0001) >#  stat_region(:,n) : list of "regions" (default: 1 region only=global)
(PID.TID 0000.0001) >#  stat_fields(:,n) : list of selected diagnostics fields (8.c) in outp.stream n
(PID.TID 0000.0001) >#                (see "available_diagnostics.log" file for the full list of diags)
(PID.TID 0000.0001) >#--------------------
(PID.TID 0000.0001) > &DIAG_STATIS_PARMS
(PID.TID 0000.0001) ># an example just to check the agreement with MONITOR output:
(PID.TID 0000.0001) > stat_fields(1:5,1)  = 'ETAN    ','UVEL    ','VVEL    ','WVEL    ', 'THETA   ',
(PID.TID 0000.0001) >  stat_fName(1) = 'dynStDiag',
(PID.TID 0000.0001) >   stat_freq(1) = -864000.,
(PID.TID 0000.0001) >  stat_phase(1) = 0.,
(PID.TID 0000.0001) > /
(PID.TID 0000.0001) >
(PID.TID 0000.0001) 
(PID.TID 0000.0001) S/R DIAGNOSTICS_READPARMS, read namelist "diagnostics_list": start
(PID.TID 0000.0001) S/R DIAGNOSTICS_READPARMS, read namelist "diagnostics_list": OK
(PID.TID 0000.0001) S/R DIAGNOSTICS_READPARMS, read namelist "DIAG_STATIS_PARMS": start
(PID.TID 0000.0001) S/R DIAGNOSTICS_READPARMS, read namelist "DIAG_STATIS_PARMS": OK
(PID.TID 0000.0001)  DIAGNOSTICS_READPARMS: global parameter summary:
(PID.TID 0000.0001)  dumpAtLast = /* always write time-ave diags at the end */
(PID.TID 0000.0001)                   F
(PID.TID 0000.0001)     ;
(PID.TID 0000.0001)  diag_mnc =   /* write NetCDF output files */
(PID.TID 0000.0001)                   T
(PID.TID 0000.0001)     ;
(PID.TID 0000.0001)  useMissingValue = /* put MissingValue where mask = 0 */
(PID.TID 0000.0001)                   F
(PID.TID 0000.0001)     ;
(PID.TID 0000.0001)  diagCG_maxIters = /* max number of iters in diag_cg2d */
(PID.TID 0000.0001)                    1000
(PID.TID 0000.0001)     ;
(PID.TID 0000.0001)  diagCG_resTarget = /* residual target for diag_cg2d */
(PID.TID 0000.0001)                 1.000000000000000E-07
(PID.TID 0000.0001)     ;
(PID.TID 0000.0001)  diagCG_pcOffDFac = /* preconditioner off-diagonal factor */
(PID.TID 0000.0001)                 9.611687812379854E-01
(PID.TID 0000.0001)     ;
(PID.TID 0000.0001) -----------------------------------------------------
(PID.TID 0000.0001)  DIAGNOSTICS_READPARMS: active diagnostics summary:
(PID.TID 0000.0001) -----------------------------------------------------
(PID.TID 0000.0001) Creating Output Stream: surfDiag
(PID.TID 0000.0001) Output Frequency:    -864000.000000 ; Phase:      432000.000000
(PID.TID 0000.0001)  Averaging Freq.:          0.000000 , Phase:           0.000000 , Cycle:   1
(PID.TID 0000.0001)  missing value: -9.990000000000E+02 ; F-Flags="D       "
(PID.TID 0000.0001)  Levels:       1.
(PID.TID 0000.0001)  Fields:    ETAN     ETANSQ   DETADT2  PHIBOT   PHIBOTSQ GM_VisbK
(PID.TID 0000.0001) Creating Output Stream: dynDiag
(PID.TID 0000.0001) Output Frequency:    1728000.000000 ; Phase:           0.000000
(PID.TID 0000.0001)  Averaging Freq.:    1728000.000000 , Phase:           0.000000 , Cycle:   1
(PID.TID 0000.0001)  missing value: -9.990000000000E+02
(PID.TID 0000.0001)  Levels:    will be set later
(PID.TID 0000.0001)  Fields:    UVEL     VVEL     WVEL     PHIHYD   VVELMASS THETA    VTHMASS  WTHMASS  THETASQ  UVELSQ
(PID.TID 0000.0001)  Fields:    UV_VEL_Z WU_VEL
(PID.TID 0000.0001) Creating Output Stream: oceDiag
(PID.TID 0000.0001) Output Frequency:     864000.000000 ; Phase:           0.000000
(PID.TID 0000.0001)  Averaging Freq.:     864000.000000 , Phase:           0.000000 , Cycle:   1
(PID.TID 0000.0001)  missing value: -9.990000000000E+02
(PID.TID 0000.0001)  Levels:       2.   3.   4.   5.   6.   7.   8.   9.  10.  11.  12.  13.
(PID.TID 0000.0001)  Fields:    DRHODR   RHOAnoma GM_PsiY  GM_Kvy   GM_Kvz   GM_Kwy   GM_Kwz
(PID.TID 0000.0001) Creating Output Stream: flxDiag
(PID.TID 0000.0001) Output Frequency:    1728000.000000 ; Phase:           0.000000
(PID.TID 0000.0001)  Averaging Freq.:    1728000.000000 , Phase:           0.000000 , Cycle:   1
(PID.TID 0000.0001)  missing value: -9.990000000000E+02
(PID.TID 0000.0001)  Levels:    will be set later
(PID.TID 0000.0001)  Fields:    ADVy_TH  ADVr_TH  DFyE_TH  DFrE_TH  DFrI_TH
(PID.TID 0000.0001) -----------------------------------------------------
(PID.TID 0000.0001)  DIAGNOSTICS_READPARMS: statistics diags. summary:
(PID.TID 0000.0001) Creating Stats. Output Stream: dynStDiag
(PID.TID 0000.0001) Output Frequency:    -864000.000000 ; Phase:           0.000000
(PID.TID 0000.0001)  Regions:   0
(PID.TID 0000.0001)  Fields:    ETAN     UVEL     VVEL     WVEL     THETA
(PID.TID 0000.0001) -----------------------------------------------------
(PID.TID 0000.0001) 
(PID.TID 0000.0001) SET_PARMS: done
(PID.TID 0000.0001) Enter INI_VERTICAL_GRID: setInterFDr=    F ; setCenterDr=    T
(PID.TID 0000.0001) %MON XC_max                       =   1.5000000000000E+00
(PID.TID 0000.0001) %MON XC_min                       =   1.5000000000000E+00
(PID.TID 0000.0001) %MON XC_mean                      =   1.5000000000000E+00
(PID.TID 0000.0001) %MON XC_sd                        =   0.0000000000000E+00
(PID.TID 0000.0001) %MON XG_max                       =   0.0000000000000E+00
(PID.TID 0000.0001) %MON XG_min                       =   0.0000000000000E+00
(PID.TID 0000.0001) %MON XG_mean                      =   0.0000000000000E+00
(PID.TID 0000.0001) %MON XG_sd                        =   0.0000000000000E+00
(PID.TID 0000.0001) %MON DXC_max                      =   3.3341812682592E+05
(PID.TID 0000.0001) %MON DXC_min                      =   4.3534716771864E+04
(PID.TID 0000.0001) %MON DXC_mean                     =   2.2627957857351E+05
(PID.TID 0000.0001) %MON DXC_sd                       =   9.1462046601761E+04
(PID.TID 0000.0001) %MON DXF_max                      =   3.3341812682592E+05
(PID.TID 0000.0001) %MON DXF_min                      =   4.3534716771864E+04
(PID.TID 0000.0001) %MON DXF_mean                     =   2.2627957857351E+05
(PID.TID 0000.0001) %MON DXF_sd                       =   9.1462046601761E+04
(PID.TID 0000.0001) %MON DXG_max                      =   3.3353242005612E+05
(PID.TID 0000.0001) %MON DXG_min                      =   3.4863631318407E+04
(PID.TID 0000.0001) %MON DXG_mean                     =   2.2620203821339E+05
(PID.TID 0000.0001) %MON DXG_sd                       =   9.1624145029333E+04
(PID.TID 0000.0001) %MON DXV_max                      =   3.3353242005612E+05
(PID.TID 0000.0001) %MON DXV_min                      =   3.4863631318407E+04
(PID.TID 0000.0001) %MON DXV_mean                     =   2.2620203821339E+05
(PID.TID 0000.0001) %MON DXV_sd                       =   9.1624145029333E+04
(PID.TID 0000.0001) %MON YC_max                       =   8.2500000000000E+01
(PID.TID 0000.0001) %MON YC_min                       =  -8.2500000000000E+01
(PID.TID 0000.0001) %MON YC_mean                      =   0.0000000000000E+00
(PID.TID 0000.0001) %MON YC_sd                        =   4.8489689625734E+01
(PID.TID 0000.0001) %MON YG_max                       =   8.1000000000000E+01
(PID.TID 0000.0001) %MON YG_min                       =  -8.4000000000000E+01
(PID.TID 0000.0001) %MON YG_mean                      =  -1.5000000000000E+00
(PID.TID 0000.0001) %MON YG_sd                        =   4.8489689625734E+01
(PID.TID 0000.0001) %MON DYC_max                      =   3.3353242005612E+05
(PID.TID 0000.0001) %MON DYC_min                      =   3.3353242005612E+05
(PID.TID 0000.0001) %MON DYC_mean                     =   3.3353242005612E+05
(PID.TID 0000.0001) %MON DYC_sd                       =   0.0000000000000E+00
(PID.TID 0000.0001) %MON DYF_max                      =   3.3353242005612E+05
(PID.TID 0000.0001) %MON DYF_min                      =   3.3353242005612E+05
(PID.TID 0000.0001) %MON DYF_mean                     =   3.3353242005612E+05
(PID.TID 0000.0001) %MON DYF_sd                       =   0.0000000000000E+00
(PID.TID 0000.0001) %MON DYG_max                      =   3.3353242005612E+05
(PID.TID 0000.0001) %MON DYG_min                      =   3.3353242005612E+05
(PID.TID 0000.0001) %MON DYG_mean                     =   3.3353242005612E+05
(PID.TID 0000.0001) %MON DYG_sd                       =   0.0000000000000E+00
(PID.TID 0000.0001) %MON DYU_max                      =   3.3353242005612E+05
(PID.TID 0000.0001) %MON DYU_min                      =   3.3353242005612E+05
(PID.TID 0000.0001) %MON DYU_mean                     =   3.3353242005612E+05
(PID.TID 0000.0001) %MON DYU_sd                       =   0.0000000000000E+00
(PID.TID 0000.0001) %MON RA_max                       =   1.1119305196237E+11
(PID.TID 0000.0001) %MON RA_min                       =   1.4518580829015E+10
(PID.TID 0000.0001) %MON RA_mean                      =   7.5462954512622E+10
(PID.TID 0000.0001) %MON RA_sd                        =   3.0502073169179E+10
(PID.TID 0000.0001) %MON RAW_max                      =   1.1119305196237E+11
(PID.TID 0000.0001) %MON RAW_min                      =   1.4518580829015E+10
(PID.TID 0000.0001) %MON RAW_mean                     =   7.5462954512622E+10
(PID.TID 0000.0001) %MON RAW_sd                       =   3.0502073169179E+10
(PID.TID 0000.0001) %MON RAS_max                      =   1.1123116810562E+11
(PID.TID 0000.0001) %MON RAS_min                      =   1.1626823069547E+10
(PID.TID 0000.0001) %MON RAS_mean                     =   7.5437095242840E+10
(PID.TID 0000.0001) %MON RAS_sd                       =   3.0556132074289E+10
(PID.TID 0000.0001) %MON RAZ_max                      =   1.1123116810562E+11
(PID.TID 0000.0001) %MON RAZ_min                      =   1.1626823069547E+10
(PID.TID 0000.0001) %MON RAZ_mean                     =   7.5437095242840E+10
(PID.TID 0000.0001) %MON RAZ_sd                       =   3.0556132074289E+10
(PID.TID 0000.0001) %MON AngleCS_max                  =   1.0000000000000E+00
(PID.TID 0000.0001) %MON AngleCS_min                  =   1.0000000000000E+00
(PID.TID 0000.0001) %MON AngleCS_mean                 =   1.0000000000000E+00
(PID.TID 0000.0001) %MON AngleCS_sd                   =   0.0000000000000E+00
(PID.TID 0000.0001) %MON AngleSN_max                  =   0.0000000000000E+00
(PID.TID 0000.0001) %MON AngleSN_min                  =   0.0000000000000E+00
(PID.TID 0000.0001) %MON AngleSN_mean                 =   0.0000000000000E+00
(PID.TID 0000.0001) %MON AngleSN_sd                   =   0.0000000000000E+00
(PID.TID 0000.0001)  MDS_READ_FIELD: opening global file: topo_sl.bin
(PID.TID 0000.0001) // =======================================================
(PID.TID 0000.0001) // Field Model R_low (ini_masks_etc)
(PID.TID 0000.0001) // CMIN =         -5.200000000000000E+03
(PID.TID 0000.0001) // CMAX =         -5.200000000000000E+03
(PID.TID 0000.0001) // CINT =          0.000000000000000E+00
(PID.TID 0000.0001) // SYMBOLS (CMIN->CMAX): -abcdefghijklmnopqrstuvwxyz+
(PID.TID 0000.0001) //                  0.0: .
(PID.TID 0000.0001) // RANGE I (Lo:Hi:Step):(    -2:     4:     1)
(PID.TID 0000.0001) // RANGE J (Lo:Hi:Step):(    59:    -2:    -1)
(PID.TID 0000.0001) // RANGE K (Lo:Hi:Step):(   1:   1:   1)
(PID.TID 0000.0001) // =======================================================
(PID.TID 0000.0001) // =======================================================
(PID.TID 0000.0001) // END OF FIELD                                          =
(PID.TID 0000.0001) // =======================================================
(PID.TID 0000.0001) 
(PID.TID 0000.0001) // =======================================================
(PID.TID 0000.0001) // Field Model Ro_surf (ini_masks_etc)
(PID.TID 0000.0001) // CMIN =          1.000000000000000E+32
(PID.TID 0000.0001) // CMAX =         -1.000000000000000E+32
(PID.TID 0000.0001) // CINT =          0.000000000000000E+00
(PID.TID 0000.0001) // SYMBOLS (CMIN->CMAX): -abcdefghijklmnopqrstuvwxyz+
(PID.TID 0000.0001) //                  0.0: .
(PID.TID 0000.0001) // RANGE I (Lo:Hi:Step):(    -2:     4:     1)
(PID.TID 0000.0001) // RANGE J (Lo:Hi:Step):(    59:    -2:    -1)
(PID.TID 0000.0001) // RANGE K (Lo:Hi:Step):(   1:   1:   1)
(PID.TID 0000.0001) // =======================================================
(PID.TID 0000.0001) // =======================================================
(PID.TID 0000.0001) // END OF FIELD                                          =
(PID.TID 0000.0001) // =======================================================
(PID.TID 0000.0001) 
(PID.TID 0000.0001) // =======================================================
(PID.TID 0000.0001) // Field hFacC at iteration          0
(PID.TID 0000.0001) // CMIN =          1.000000000000000E+00
(PID.TID 0000.0001) // CMAX =          1.000000000000000E+00
(PID.TID 0000.0001) // CINT =          0.000000000000000E+00
(PID.TID 0000.0001) // SYMBOLS (CMIN->CMAX): -abcdefghijklmnopqrstuvwxyz+
(PID.TID 0000.0001) //                  0.0: .
(PID.TID 0000.0001) // RANGE I (Lo:Hi:Step):(    -2:     4:     1)
(PID.TID 0000.0001) // RANGE J (Lo:Hi:Step):(    59:    -2:    -1)
(PID.TID 0000.0001) // RANGE K (Lo:Hi:Step):(   1:   1:   1)
(PID.TID 0000.0001) // =======================================================
(PID.TID 0000.0001) // =======================================================
(PID.TID 0000.0001) // END OF FIELD                                          =
(PID.TID 0000.0001) // =======================================================
(PID.TID 0000.0001) 
(PID.TID 0000.0001) // =======================================================
(PID.TID 0000.0001) // Field hFacW at iteration          0
(PID.TID 0000.0001) // CMIN =          1.000000000000000E+00
(PID.TID 0000.0001) // CMAX =          1.000000000000000E+00
(PID.TID 0000.0001) // CINT =          0.000000000000000E+00
(PID.TID 0000.0001) // SYMBOLS (CMIN->CMAX): -abcdefghijklmnopqrstuvwxyz+
(PID.TID 0000.0001) //                  0.0: .
(PID.TID 0000.0001) // RANGE I (Lo:Hi:Step):(    -2:     4:     1)
(PID.TID 0000.0001) // RANGE J (Lo:Hi:Step):(    59:    -2:    -1)
(PID.TID 0000.0001) // RANGE K (Lo:Hi:Step):(   1:   1:   1)
(PID.TID 0000.0001) // =======================================================
(PID.TID 0000.0001) // =======================================================
(PID.TID 0000.0001) // END OF FIELD                                          =
(PID.TID 0000.0001) // =======================================================
(PID.TID 0000.0001) 
(PID.TID 0000.0001) // =======================================================
(PID.TID 0000.0001) // Field hFacS at iteration          0
(PID.TID 0000.0001) // CMIN =          1.000000000000000E+00
(PID.TID 0000.0001) // CMAX =          1.000000000000000E+00
(PID.TID 0000.0001) // CINT =          0.000000000000000E+00
(PID.TID 0000.0001) // SYMBOLS (CMIN->CMAX): -abcdefghijklmnopqrstuvwxyz+
(PID.TID 0000.0001) //                  0.0: .
(PID.TID 0000.0001) // RANGE I (Lo:Hi:Step):(    -2:     4:     1)
(PID.TID 0000.0001) // RANGE J (Lo:Hi:Step):(    59:    -2:    -1)
(PID.TID 0000.0001) // RANGE K (Lo:Hi:Step):(   1:   1:   1)
(PID.TID 0000.0001) // =======================================================
(PID.TID 0000.0001) // =======================================================
(PID.TID 0000.0001) // END OF FIELD                                          =
(PID.TID 0000.0001) // =======================================================
(PID.TID 0000.0001) 
(PID.TID 0000.0001) GAD_INIT_FIXED: GAD_OlMinSize=  2  0  1
(PID.TID 0000.0001) 
(PID.TID 0000.0001) // ===================================
(PID.TID 0000.0001) // GAD parameters :
(PID.TID 0000.0001) // ===================================
(PID.TID 0000.0001) tempAdvScheme =   /* Temp. Horiz.Advection scheme selector */
(PID.TID 0000.0001)                      77
(PID.TID 0000.0001)     ;
(PID.TID 0000.0001) tempVertAdvScheme =   /* Temp. Vert. Advection scheme selector */
(PID.TID 0000.0001)                      77
(PID.TID 0000.0001)     ;
(PID.TID 0000.0001) tempMultiDimAdvec =   /* use Muti-Dim Advec method for Temp */
(PID.TID 0000.0001)                   T
(PID.TID 0000.0001)     ;
(PID.TID 0000.0001) tempSOM_Advection = /* use 2nd Order Moment Advection for Temp */
(PID.TID 0000.0001)                   F
(PID.TID 0000.0001)     ;
(PID.TID 0000.0001) AdamsBashforthGt = /* apply Adams-Bashforth extrapolation on Gt */
(PID.TID 0000.0001)                   F
(PID.TID 0000.0001)     ;
(PID.TID 0000.0001) AdamsBashforth_T = /* apply Adams-Bashforth extrapolation on Temp */
(PID.TID 0000.0001)                   F
(PID.TID 0000.0001)     ;
(PID.TID 0000.0001) saltAdvScheme =   /* Salt. Horiz.advection scheme selector */
(PID.TID 0000.0001)                       2
(PID.TID 0000.0001)     ;
(PID.TID 0000.0001) saltVertAdvScheme =   /* Salt. Vert. Advection scheme selector */
(PID.TID 0000.0001)                       2
(PID.TID 0000.0001)     ;
(PID.TID 0000.0001) saltMultiDimAdvec =   /* use Muti-Dim Advec method for Salt */
(PID.TID 0000.0001)                   F
(PID.TID 0000.0001)     ;
(PID.TID 0000.0001) saltSOM_Advection = /* use 2nd Order Moment Advection for Salt */
(PID.TID 0000.0001)                   F
(PID.TID 0000.0001)     ;
(PID.TID 0000.0001) AdamsBashforthGs = /* apply Adams-Bashforth extrapolation on Gs */
(PID.TID 0000.0001)                   F
(PID.TID 0000.0001)     ;
(PID.TID 0000.0001) AdamsBashforth_S = /* apply Adams-Bashforth extrapolation on Salt */
(PID.TID 0000.0001)                   F
(PID.TID 0000.0001)     ;
(PID.TID 0000.0001) // ===================================
(PID.TID 0000.0001) ------------------------------------------------------------
(PID.TID 0000.0001) DIAGNOSTICS_SET_LEVELS: done
(PID.TID 0000.0001)  Total Nb of available Diagnostics: ndiagt=   225
(PID.TID 0000.0001)  write list of available Diagnostics to file: available_diagnostics.log
(PID.TID 0000.0001) SETDIAG: Allocate  1 x  1 Levels for Diagnostic #    23 ETAN
(PID.TID 0000.0001) SETDIAG: Allocate  1 x  1 Levels for Diagnostic #    24 ETANSQ
(PID.TID 0000.0001) SETDIAG: Allocate  1 x  1 Levels for Diagnostic #    25 DETADT2
(PID.TID 0000.0001) SETDIAG: Allocate  1 x  1 Levels for Diagnostic #    73 PHIBOT
(PID.TID 0000.0001) SETDIAG: Allocate  1 x  1 Levels for Diagnostic #    74 PHIBOTSQ
(PID.TID 0000.0001) SETDIAG: Allocate  1 x  1 Levels for Diagnostic #   203 GM_VisbK
(PID.TID 0000.0001) SETDIAG: Allocate 15 x  1 Levels for Diagnostic #    30 UVEL
(PID.TID 0000.0001) SETDIAG: Allocate 15 x  1 Levels for Diagnostic #    31 VVEL
(PID.TID 0000.0001) SETDIAG: Allocate 15 x  1 Levels for Diagnostic #    32 WVEL
(PID.TID 0000.0001) SETDIAG: Allocate 15 x  1 Levels for Diagnostic #    71 PHIHYD
(PID.TID 0000.0001) SETDIAG: Allocate 15 x  1 Levels for Diagnostic #    46 VVELMASS
(PID.TID 0000.0001) SETDIAG: Allocate 15 x  1 Levels for Diagnostic #    26 THETA
(PID.TID 0000.0001) SETDIAG: Allocate 15 x  1 Levels for Diagnostic #    51 VTHMASS
(PID.TID 0000.0001) SETDIAG: Allocate 15 x  1 Levels for Diagnostic #    52 WTHMASS
(PID.TID 0000.0001) SETDIAG: Allocate 15 x  1 Levels for Diagnostic #    33 THETASQ
(PID.TID 0000.0001) SETDIAG: Allocate 15 x  1 Levels for Diagnostic #    36 UVELSQ
(PID.TID 0000.0001) SETDIAG: Allocate 15 x  1 Levels for Diagnostic #    42 UV_VEL_Z
(PID.TID 0000.0001) SETDIAG: Allocate 15 x  1 Levels for Diagnostic #    43 WU_VEL
(PID.TID 0000.0001) SETDIAG: Allocate 15 x  1 Levels for Diagnostic #    77 DRHODR
(PID.TID 0000.0001) SETDIAG: Allocate 15 x  1 Levels for Diagnostic #    64 RHOAnoma
(PID.TID 0000.0001) SETDIAG: Allocate 15 x  1 Levels for Diagnostic #   218 GM_PsiY
(PID.TID 0000.0001) SETDIAG: Allocate 15 x  1 Levels for Diagnostic #   211 GM_Kvy
(PID.TID 0000.0001) SETDIAG: Allocate 15 x  1 Levels for Diagnostic #   213 GM_Kvz
(PID.TID 0000.0001) SETDIAG: Allocate 15 x  1 Levels for Diagnostic #   215 GM_Kwy
(PID.TID 0000.0001) SETDIAG: Allocate 15 x  1 Levels for Diagnostic #   216 GM_Kwz
(PID.TID 0000.0001) SETDIAG: Allocate 15 x  1 Levels for Diagnostic #   111 ADVy_TH
(PID.TID 0000.0001) SETDIAG: Allocate 15 x  1 Levels for Diagnostic #   109 ADVr_TH
(PID.TID 0000.0001) SETDIAG: Allocate 15 x  1 Levels for Diagnostic #   114 DFyE_TH
(PID.TID 0000.0001) SETDIAG: Allocate 15 x  1 Levels for Diagnostic #   112 DFrE_TH
(PID.TID 0000.0001) SETDIAG: Allocate 15 x  1 Levels for Diagnostic #   115 DFrI_TH
(PID.TID 0000.0001)   space allocated for all diagnostics:     366 levels
(PID.TID 0000.0001)   set mate pointer for diag #    30  UVEL     , Parms: UUR     MR , mate:    31
(PID.TID 0000.0001)   set mate pointer for diag #    31  VVEL     , Parms: VVR     MR , mate:    30
(PID.TID 0000.0001)   set mate pointer for diag #    42  UV_VEL_Z , Parms: UZR     MR , mate:    42
(PID.TID 0000.0001) DIAGNOSTICS_SET_POINTERS: Set levels for Outp.Stream: dynDiag
(PID.TID 0000.0001)  Levels:       1.   2.   3.   4.   5.   6.   7.   8.   9.  10.  11.  12.  13.  14.  15.
(PID.TID 0000.0001) DIAGNOSTICS_SET_POINTERS: Set levels for Outp.Stream: flxDiag
(PID.TID 0000.0001)  Levels:       1.   2.   3.   4.   5.   6.   7.   8.   9.  10.  11.  12.  13.  14.  15.
(PID.TID 0000.0001) DIAGNOSTICS_SET_POINTERS: done
(PID.TID 0000.0001) ------------------------------------------------------------
(PID.TID 0000.0001) DIAGSTATS_SET_REGIONS: define no region
(PID.TID 0000.0001) ------------------------------------------------------------
(PID.TID 0000.0001) SETDIAG: Allocate  1 Levels for Stats-Diag #    23 ETAN
(PID.TID 0000.0001) SETDIAG: Allocate 15 Levels for Stats-Diag #    30 UVEL
(PID.TID 0000.0001) SETDIAG: Allocate 15 Levels for Stats-Diag #    31 VVEL
(PID.TID 0000.0001) SETDIAG: Allocate 15 Levels for Stats-Diag #    32 WVEL
(PID.TID 0000.0001) SETDIAG: Allocate 15 Levels for Stats-Diag #    26 THETA
(PID.TID 0000.0001)   space allocated for all stats-diags:      61 levels
(PID.TID 0000.0001) DIAGSTATS_SET_POINTERS: done
(PID.TID 0000.0001) ------------------------------------------------------------
(PID.TID 0000.0001) %MON fCori_max                    =   1.4459476778846E-04
(PID.TID 0000.0001) %MON fCori_min                    =  -1.4459476778846E-04
(PID.TID 0000.0001) %MON fCori_mean                   =   0.0000000000000E+00
(PID.TID 0000.0001) %MON fCori_sd                     =   9.9401036497041E-05
(PID.TID 0000.0001) %MON fCoriG_max                   =   1.4404690751822E-04
(PID.TID 0000.0001) %MON fCoriG_min                   =  -1.4504353002754E-04
(PID.TID 0000.0001) %MON fCoriG_mean                  =  -2.5900630362060E-06
(PID.TID 0000.0001) %MON fCoriG_sd                    =   9.9372489017716E-05
(PID.TID 0000.0001) %MON fCoriCos_max                 =   1.4579249376772E-04
(PID.TID 0000.0001) %MON fCoriCos_min                 =   1.9036262317421E-05
(PID.TID 0000.0001) %MON fCoriCos_mean                =   9.8944422617323E-05
(PID.TID 0000.0001) %MON fCoriCos_sd                  =   3.9993266071379E-05
(PID.TID 0000.0001) INI_CG2D: CG2D normalisation factor =  3.5045293363874508E-05
(PID.TID 0000.0001) INI_CG2D: cg2dTolerance = 1.225676511460127E-12 (Area=4.1968882910E+12)
(PID.TID 0000.0001) 
(PID.TID 0000.0001) // =======================================================
(PID.TID 0000.0001) // Model configuration
(PID.TID 0000.0001) // =======================================================
(PID.TID 0000.0001) //
(PID.TID 0000.0001) // "Physical" paramters ( PARM01 in namelist )
(PID.TID 0000.0001) //
(PID.TID 0000.0001) buoyancyRelation = /* Type of relation to get Buoyancy */
(PID.TID 0000.0001)               'OCEANIC'
(PID.TID 0000.0001)     ;
(PID.TID 0000.0001) fluidIsAir   =  /* fluid major constituent is Air */
(PID.TID 0000.0001)                   F
(PID.TID 0000.0001)     ;
(PID.TID 0000.0001) fluidIsWater =  /* fluid major constituent is Water */
(PID.TID 0000.0001)                   T
(PID.TID 0000.0001)     ;
(PID.TID 0000.0001) usingPCoords =  /* use p (or p*) vertical coordinate */
(PID.TID 0000.0001)                   F
(PID.TID 0000.0001)     ;
(PID.TID 0000.0001) usingZCoords =  /* use z (or z*) vertical coordinate */
(PID.TID 0000.0001)                   T
(PID.TID 0000.0001)     ;
(PID.TID 0000.0001) tRef =   /* Reference temperature profile ( oC or K ) */
(PID.TID 0000.0001)                 1.880000000000000E+01,      /* K =  1 */
(PID.TID 0000.0001)                 1.630000000000000E+01,      /* K =  2 */
(PID.TID 0000.0001)                 1.310000000000000E+01,      /* K =  3 */
(PID.TID 0000.0001)                 1.040000000000000E+01,      /* K =  4 */
(PID.TID 0000.0001)                 8.100000000000000E+00,      /* K =  5 */
(PID.TID 0000.0001)                 6.000000000000000E+00,      /* K =  6 */
(PID.TID 0000.0001)                 4.500000000000000E+00,      /* K =  7 */
(PID.TID 0000.0001)                 3.400000000000000E+00,      /* K =  8 */
(PID.TID 0000.0001)                 2.700000000000000E+00,      /* K =  9 */
(PID.TID 0000.0001)                 2.200000000000000E+00,      /* K = 10 */
(PID.TID 0000.0001)                 1.800000000000000E+00,      /* K = 11 */
(PID.TID 0000.0001)                 1.500000000000000E+00,      /* K = 12 */
(PID.TID 0000.0001)                 1.200000000000000E+00,      /* K = 13 */
(PID.TID 0000.0001)                 1.000000000000000E+00,      /* K = 14 */
(PID.TID 0000.0001)                 9.000000000000000E-01       /* K = 15 */
(PID.TID 0000.0001)     ;
(PID.TID 0000.0001) sRef =   /* Reference salinity profile ( g/kg ) */
(PID.TID 0000.0001)    15 @  3.470000000000000E+01              /* K =  1: 15 */
(PID.TID 0000.0001)     ;
(PID.TID 0000.0001) rhoRef =   /* Density vertical profile from (Ref,sRef)( kg/m^3 ) */
(PID.TID 0000.0001)                 1.035000000000000E+03,      /* K =  1 */
(PID.TID 0000.0001)                 1.035517500000000E+03,      /* K =  2 */
(PID.TID 0000.0001)                 1.036179900000000E+03,      /* K =  3 */
(PID.TID 0000.0001)                 1.036738800000000E+03,      /* K =  4 */
(PID.TID 0000.0001)                 1.037214900000000E+03,      /* K =  5 */
(PID.TID 0000.0001)                 1.037649600000000E+03,      /* K =  6 */
(PID.TID 0000.0001)                 1.037960100000000E+03,      /* K =  7 */
(PID.TID 0000.0001)                 1.038187800000000E+03,      /* K =  8 */
(PID.TID 0000.0001)                 1.038332700000000E+03,      /* K =  9 */
(PID.TID 0000.0001)                 1.038436200000000E+03,      /* K = 10 */
(PID.TID 0000.0001)                 1.038519000000000E+03,      /* K = 11 */
(PID.TID 0000.0001)                 1.038581100000000E+03,      /* K = 12 */
(PID.TID 0000.0001)                 1.038643200000000E+03,      /* K = 13 */
(PID.TID 0000.0001)                 1.038684600000000E+03,      /* K = 14 */
(PID.TID 0000.0001)                 1.038705300000000E+03       /* K = 15 */
(PID.TID 0000.0001)     ;
(PID.TID 0000.0001) dBdrRef = /* Vertical grad. of reference buoyancy [(m/s/r)^2] */
(PID.TID 0000.0001)                 0.000000000000000E+00,      /* K =  1 */
(PID.TID 0000.0001)                 8.175000000000001E-05,      /* K =  2 */
(PID.TID 0000.0001)                 7.386352941176473E-05,      /* K =  3 */
(PID.TID 0000.0001)                 4.414500000000000E-05,      /* K =  4 */
(PID.TID 0000.0001)                 2.734909090909092E-05,      /* K =  5 */
(PID.TID 0000.0001)                 1.916372093023256E-05,      /* K =  6 */
(PID.TID 0000.0001)                 1.110566037735849E-05,      /* K =  7 */
(PID.TID 0000.0001)                 6.851428571428573E-06,      /* K =  8 */
(PID.TID 0000.0001)                 3.762739726027396E-06,      /* K =  9 */
(PID.TID 0000.0001)                 2.363855421686748E-06,      /* K = 10 */
(PID.TID 0000.0001)                 1.687741935483872E-06,      /* K = 11 */
(PID.TID 0000.0001)                 1.142912621359224E-06,      /* K = 12 */
(PID.TID 0000.0001)                 1.041769911504425E-06,      /* K = 13 */
(PID.TID 0000.0001)                 6.380487804878048E-07,      /* K = 14 */
(PID.TID 0000.0001)                 2.950375939849624E-07       /* K = 15 */
(PID.TID 0000.0001)     ;
(PID.TID 0000.0001) useStrainTensionVisc= /* Use StrainTension Form of Viscous Operator */
(PID.TID 0000.0001)                   F
(PID.TID 0000.0001)     ;
(PID.TID 0000.0001) useVariableVisc = /* Use variable horizontal viscosity */
(PID.TID 0000.0001)                   F
(PID.TID 0000.0001)     ;
(PID.TID 0000.0001) useHarmonicVisc = /* Use harmonic horizontal viscosity */
(PID.TID 0000.0001)                   T
(PID.TID 0000.0001)     ;
(PID.TID 0000.0001) useBiharmonicVisc= /* Use biharmonic horiz.  viscosity */
(PID.TID 0000.0001)                   F
(PID.TID 0000.0001)     ;
(PID.TID 0000.0001) useSmag3D = /* Use isotropic 3-D Smagorinsky viscosity */
(PID.TID 0000.0001)                   F
(PID.TID 0000.0001)     ;
(PID.TID 0000.0001) viscAh  =   /* Lateral harmonic viscosity ( m^2/s ) */
(PID.TID 0000.0001)                 1.200000000000000E+06
(PID.TID 0000.0001)     ;
(PID.TID 0000.0001) viscA4  =   /* Lateral biharmonic viscosity ( m^4/s ) */
(PID.TID 0000.0001)                 0.000000000000000E+00
(PID.TID 0000.0001)     ;
(PID.TID 0000.0001) no_slip_sides =  /* Viscous BCs: No-slip sides */
(PID.TID 0000.0001)                   F
(PID.TID 0000.0001)     ;
(PID.TID 0000.0001) sideDragFactor = /* side-drag scaling factor (non-dim) */
(PID.TID 0000.0001)                 2.000000000000000E+00
(PID.TID 0000.0001)     ;
(PID.TID 0000.0001) viscArNr = /* vertical profile of vertical viscosity ( m^2/s )*/
(PID.TID 0000.0001)    15 @  1.000000000000000E-03              /* K =  1: 15 */
(PID.TID 0000.0001)     ;
(PID.TID 0000.0001) no_slip_bottom =  /* Viscous BCs: No-slip bottom */
(PID.TID 0000.0001)                   T
(PID.TID 0000.0001)     ;
(PID.TID 0000.0001) bottomVisc_pCell = /* Partial-cell in bottom Visc. BC */
(PID.TID 0000.0001)                   F
(PID.TID 0000.0001)     ;
(PID.TID 0000.0001) bottomDragLinear = /* linear bottom-drag coefficient ( m/s ) */
(PID.TID 0000.0001)                 1.000000000000000E-03
(PID.TID 0000.0001)     ;
(PID.TID 0000.0001) bottomDragQuadratic = /* quadratic bottom-drag coefficient (-) */
(PID.TID 0000.0001)                 0.000000000000000E+00
(PID.TID 0000.0001)     ;
(PID.TID 0000.0001) selectBotDragQuadr = /* select quadratic bottom drag options */
(PID.TID 0000.0001)                      -1
(PID.TID 0000.0001)     ;
(PID.TID 0000.0001) diffKhT =   /* Laplacian diffusion of heat laterally ( m^2/s ) */
(PID.TID 0000.0001)                 0.000000000000000E+00
(PID.TID 0000.0001)     ;
(PID.TID 0000.0001) diffK4T =   /* Biharmonic diffusion of heat laterally ( m^4/s ) */
(PID.TID 0000.0001)                 0.000000000000000E+00
(PID.TID 0000.0001)     ;
(PID.TID 0000.0001) diffKhS =   /* Laplacian diffusion of salt laterally ( m^2/s ) */
(PID.TID 0000.0001)                 0.000000000000000E+00
(PID.TID 0000.0001)     ;
(PID.TID 0000.0001) diffK4S =   /* Biharmonic diffusion of salt laterally ( m^4/s ) */
(PID.TID 0000.0001)                 0.000000000000000E+00
(PID.TID 0000.0001)     ;
(PID.TID 0000.0001) diffKrNrT = /* vertical profile of vertical diffusion of Temp ( m^2/s )*/
(PID.TID 0000.0001)                 1.000000000000000E-04,      /* K =  1 */
(PID.TID 0000.0001)    14 @  1.000000000000000E-05              /* K =  2: 15 */
(PID.TID 0000.0001)     ;
(PID.TID 0000.0001) diffKrNrS = /* vertical profile of vertical diffusion of Salt ( m^2/s )*/
(PID.TID 0000.0001)                 1.000000000000000E-04,      /* K =  1 */
(PID.TID 0000.0001)    14 @  1.000000000000000E-05              /* K =  2: 15 */
(PID.TID 0000.0001)     ;
(PID.TID 0000.0001) diffKrBL79surf = /* Surface diffusion for Bryan and Lewis 79 ( m^2/s ) */
(PID.TID 0000.0001)                 0.000000000000000E+00
(PID.TID 0000.0001)     ;
(PID.TID 0000.0001) diffKrBL79deep = /* Deep diffusion for Bryan and Lewis 1979 ( m^2/s ) */
(PID.TID 0000.0001)                 0.000000000000000E+00
(PID.TID 0000.0001)     ;
(PID.TID 0000.0001) diffKrBL79scl = /* Depth scale for Bryan and Lewis 1979 ( m ) */
(PID.TID 0000.0001)                 2.000000000000000E+02
(PID.TID 0000.0001)     ;
(PID.TID 0000.0001) diffKrBL79Ho = /* Turning depth for Bryan and Lewis 1979 ( m ) */
(PID.TID 0000.0001)                -2.000000000000000E+03
(PID.TID 0000.0001)     ;
(PID.TID 0000.0001) ivdc_kappa = /* Implicit Vertical Diffusivity for Convection ( m^2/s) */
(PID.TID 0000.0001)                 1.000000000000000E+02
(PID.TID 0000.0001)     ;
(PID.TID 0000.0001) hMixCriteria=  /* Criteria for mixed-layer diagnostic */
(PID.TID 0000.0001)                -8.000000000000000E-01
(PID.TID 0000.0001)     ;
(PID.TID 0000.0001) dRhoSmall =  /* Parameter for mixed-layer diagnostic */
(PID.TID 0000.0001)                 1.000000000000000E-06
(PID.TID 0000.0001)     ;
(PID.TID 0000.0001) hMixSmooth=  /* Smoothing parameter for mixed-layer diagnostic */
(PID.TID 0000.0001)                 0.000000000000000E+00
(PID.TID 0000.0001)     ;
(PID.TID 0000.0001) eosType =  /* Type of Equation of State */
(PID.TID 0000.0001)               'LINEAR'
(PID.TID 0000.0001)     ;
(PID.TID 0000.0001) tAlpha = /* Linear EOS thermal expansion coefficient ( 1/oC ) */
(PID.TID 0000.0001)                 2.000000000000000E-04
(PID.TID 0000.0001)     ;
(PID.TID 0000.0001) sBeta  = /* Linear EOS haline contraction coefficient ( 1/(g/kg) ) */
(PID.TID 0000.0001)                 0.000000000000000E+00
(PID.TID 0000.0001)     ;
(PID.TID 0000.0001) rhoNil    = /* Reference density for Linear EOS ( kg/m^3 ) */
(PID.TID 0000.0001)                 1.035000000000000E+03
(PID.TID 0000.0001)     ;
(PID.TID 0000.0001) selectP_inEOS_Zc = /* select pressure to use in EOS (0,1,2,3) */
(PID.TID 0000.0001)                       0
(PID.TID 0000.0001)     0= -g*rhoConst*z ; 1= pRef (from tRef,sRef); 2= Hyd P ; 3= Hyd+NH P
(PID.TID 0000.0001)     ;
(PID.TID 0000.0001) surf_pRef = /* Surface reference pressure ( Pa ) */
(PID.TID 0000.0001)                 1.013250000000000E+05
(PID.TID 0000.0001)     ;
(PID.TID 0000.0001) HeatCapacity_Cp =  /* Specific heat capacity ( J/kg/K ) */
(PID.TID 0000.0001)                 3.994000000000000E+03
(PID.TID 0000.0001)     ;
(PID.TID 0000.0001) celsius2K = /* 0 degree Celsius converted to Kelvin ( K ) */
(PID.TID 0000.0001)                 2.731500000000000E+02
(PID.TID 0000.0001)     ;
(PID.TID 0000.0001) rhoConst  = /* Reference density (Boussinesq)  ( kg/m^3 ) */
(PID.TID 0000.0001)                 1.035000000000000E+03
(PID.TID 0000.0001)     ;
(PID.TID 0000.0001) rhoFacC = /* normalized Reference density @ cell-Center (-) */
(PID.TID 0000.0001)    15 @  1.000000000000000E+00              /* K =  1: 15 */
(PID.TID 0000.0001)     ;
(PID.TID 0000.0001) rhoFacF = /* normalized Reference density @ W-Interface (-) */
(PID.TID 0000.0001)    16 @  1.000000000000000E+00              /* K =  1: 16 */
(PID.TID 0000.0001)     ;
(PID.TID 0000.0001) rhoConstFresh = /* Fresh-water reference density ( kg/m^3 ) */
(PID.TID 0000.0001)                 1.035000000000000E+03
(PID.TID 0000.0001)     ;
(PID.TID 0000.0001) gravity =   /* Gravitational acceleration ( m/s^2 ) */
(PID.TID 0000.0001)                 9.810000000000000E+00
(PID.TID 0000.0001)     ;
(PID.TID 0000.0001) gBaro =   /* Barotropic gravity ( m/s^2 ) */
(PID.TID 0000.0001)                 9.810000000000000E+00
(PID.TID 0000.0001)     ;
(PID.TID 0000.0001) gravFacC = /* gravity factor (vs surf.) @ cell-Center (-) */
(PID.TID 0000.0001)    15 @  1.000000000000000E+00              /* K =  1: 15 */
(PID.TID 0000.0001)     ;
(PID.TID 0000.0001) gravFacF = /* gravity factor (vs surf.) @ W-Interface (-) */
(PID.TID 0000.0001)    16 @  1.000000000000000E+00              /* K =  1: 16 */
(PID.TID 0000.0001)     ;
(PID.TID 0000.0001) rotationPeriod =   /* Rotation Period ( s ) */
(PID.TID 0000.0001)                 8.616400000000000E+04
(PID.TID 0000.0001)     ;
(PID.TID 0000.0001) omega =   /* Angular velocity ( rad/s ) */
(PID.TID 0000.0001)                 7.292123516990375E-05
(PID.TID 0000.0001)     ;
(PID.TID 0000.0001) f0 =   /* Reference coriolis parameter ( 1/s ) */
(PID.TID 0000.0001)                 1.000000000000000E-04
(PID.TID 0000.0001)     ;
(PID.TID 0000.0001) beta =   /* Beta ( 1/(m.s) ) */
(PID.TID 0000.0001)                 9.999999999999999E-12
(PID.TID 0000.0001)     ;
(PID.TID 0000.0001) fPrime =   /* Second coriolis parameter ( 1/s ) */
(PID.TID 0000.0001)                 0.000000000000000E+00
(PID.TID 0000.0001)     ;
(PID.TID 0000.0001) rigidLid =   /* Rigid lid on/off flag */
(PID.TID 0000.0001)                   F
(PID.TID 0000.0001)     ;
(PID.TID 0000.0001) implicitFreeSurface =   /* Implicit free surface on/off flag */
(PID.TID 0000.0001)                   T
(PID.TID 0000.0001)     ;
(PID.TID 0000.0001) freeSurfFac =   /* Implicit free surface factor */
(PID.TID 0000.0001)                 1.000000000000000E+00
(PID.TID 0000.0001)     ;
(PID.TID 0000.0001) implicSurfPress =  /* Surface Pressure implicit factor (0-1) */
(PID.TID 0000.0001)                 1.000000000000000E+00
(PID.TID 0000.0001)     ;
(PID.TID 0000.0001) implicDiv2DFlow =  /* Barot. Flow Div. implicit factor (0-1) */
(PID.TID 0000.0001)                 1.000000000000000E+00
(PID.TID 0000.0001)     ;
(PID.TID 0000.0001) uniformLin_PhiSurf = /* use uniform Bo_surf on/off flag */
(PID.TID 0000.0001)                   T
(PID.TID 0000.0001)     ;
(PID.TID 0000.0001) uniformFreeSurfLev = /* free-surface level-index is uniform */
(PID.TID 0000.0001)                   T
(PID.TID 0000.0001)     ;
(PID.TID 0000.0001) sIceLoadFac =  /* scale factor for sIceLoad (0-1) */
(PID.TID 0000.0001)                 1.000000000000000E+00
(PID.TID 0000.0001)     ;
(PID.TID 0000.0001) hFacMin =   /* minimum partial cell factor (hFac) */
(PID.TID 0000.0001)                 1.000000000000000E+00
(PID.TID 0000.0001)     ;
(PID.TID 0000.0001) hFacMinDr = /* minimum partial cell thickness ( m) */
(PID.TID 0000.0001)                 0.000000000000000E+00
(PID.TID 0000.0001)     ;
(PID.TID 0000.0001) exactConserv =  /* Exact Volume Conservation on/off flag */
(PID.TID 0000.0001)                   T
(PID.TID 0000.0001)     ;
(PID.TID 0000.0001) linFSConserveTr = /* Tracer correction for Lin Free Surface on/off flag */
(PID.TID 0000.0001)                   F
(PID.TID 0000.0001)     ;
(PID.TID 0000.0001) nonlinFreeSurf = /* Non-linear Free Surf. options (-1,0,1,2,3)*/
(PID.TID 0000.0001)                       0
(PID.TID 0000.0001)      -1,0= Off ; 1,2,3= On, 2=+rescale gU,gV, 3=+update cg2d solv.
(PID.TID 0000.0001)     ;
(PID.TID 0000.0001) hFacInf =   /* lower threshold for hFac (nonlinFreeSurf only)*/
(PID.TID 0000.0001)                 2.000000000000000E-01
(PID.TID 0000.0001)     ;
(PID.TID 0000.0001) hFacSup =   /* upper threshold for hFac (nonlinFreeSurf only)*/
(PID.TID 0000.0001)                 2.000000000000000E+00
(PID.TID 0000.0001)     ;
(PID.TID 0000.0001) select_rStar = /* r* Vertical coord. options (=0 r coord.; >0 uses r*)*/
(PID.TID 0000.0001)                       0
(PID.TID 0000.0001)     ;
(PID.TID 0000.0001) useRealFreshWaterFlux = /* Real Fresh Water Flux on/off flag*/
(PID.TID 0000.0001)                   F
(PID.TID 0000.0001)     ;
(PID.TID 0000.0001) temp_EvPrRn = /* Temp. of Evap/Prec/R (UNSET=use local T)(oC)*/
(PID.TID 0000.0001)                 1.234567000000000E+05
(PID.TID 0000.0001)     ;
(PID.TID 0000.0001) salt_EvPrRn = /* Salin. of Evap/Prec/R (UNSET=use local S)(g/kg)*/
(PID.TID 0000.0001)                 0.000000000000000E+00
(PID.TID 0000.0001)     ;
(PID.TID 0000.0001) selectAddFluid = /* option for mass source/sink of fluid (=0: off) */
(PID.TID 0000.0001)                       0
(PID.TID 0000.0001)     ;
(PID.TID 0000.0001) temp_addMass = /* Temp. of addMass array (UNSET=use local T)(oC)*/
(PID.TID 0000.0001)                 1.234567000000000E+05
(PID.TID 0000.0001)     ;
(PID.TID 0000.0001) salt_addMass = /* Salin. of addMass array (UNSET=use local S)(g/kg)*/
(PID.TID 0000.0001)                 0.000000000000000E+00
(PID.TID 0000.0001)     ;
(PID.TID 0000.0001) convertFW2Salt = /* convert F.W. Flux to Salt Flux (-1=use local S)(g/kg)*/
(PID.TID 0000.0001)                 3.500000000000000E+01
(PID.TID 0000.0001)     ;
(PID.TID 0000.0001) use3Dsolver = /* use 3-D pressure solver on/off flag */
(PID.TID 0000.0001)                   F
(PID.TID 0000.0001)     ;
(PID.TID 0000.0001) nonHydrostatic =  /* Non-Hydrostatic on/off flag */
(PID.TID 0000.0001)                   F
(PID.TID 0000.0001)     ;
(PID.TID 0000.0001) nh_Am2 = /* Non-Hydrostatic terms scaling factor */
(PID.TID 0000.0001)                 1.000000000000000E+00
(PID.TID 0000.0001)     ;
(PID.TID 0000.0001) implicitNHPress = /* Non-Hyd Pressure implicit factor (0-1)*/
(PID.TID 0000.0001)                 1.000000000000000E+00
(PID.TID 0000.0001)     ;
(PID.TID 0000.0001) selectNHfreeSurf = /* Non-Hyd (free-)Surface option */
(PID.TID 0000.0001)                       0
(PID.TID 0000.0001)     ;
(PID.TID 0000.0001) quasiHydrostatic = /* Quasi-Hydrostatic on/off flag */
(PID.TID 0000.0001)                   F
(PID.TID 0000.0001)     ;
(PID.TID 0000.0001) calc_wVelocity = /* vertical velocity calculation on/off flag */
(PID.TID 0000.0001)                   T
(PID.TID 0000.0001)     ;
(PID.TID 0000.0001) momStepping =  /* Momentum equation on/off flag */
(PID.TID 0000.0001)                   T
(PID.TID 0000.0001)     ;
(PID.TID 0000.0001) vectorInvariantMomentum= /* Vector-Invariant Momentum on/off */
(PID.TID 0000.0001)                   F
(PID.TID 0000.0001)     ;
(PID.TID 0000.0001) momAdvection =  /* Momentum advection on/off flag */
(PID.TID 0000.0001)                   T
(PID.TID 0000.0001)     ;
(PID.TID 0000.0001) momViscosity =  /* Momentum viscosity on/off flag */
(PID.TID 0000.0001)                   T
(PID.TID 0000.0001)     ;
(PID.TID 0000.0001) momImplVertAdv= /* Momentum implicit vert. advection on/off*/
(PID.TID 0000.0001)                   F
(PID.TID 0000.0001)     ;
(PID.TID 0000.0001) implicitViscosity = /* Implicit viscosity on/off flag */
(PID.TID 0000.0001)                   F
(PID.TID 0000.0001)     ;
(PID.TID 0000.0001) selectImplicitDrag= /* Implicit bot Drag options (0,1,2)*/
(PID.TID 0000.0001)                       0
(PID.TID 0000.0001)     0= Expl. ; 1= Impl. on provis. Vel ; 2= Fully Impl (with surf.P)
(PID.TID 0000.0001)     ;
(PID.TID 0000.0001) metricTerms =  /* metric-Terms on/off flag */
(PID.TID 0000.0001)                   T
(PID.TID 0000.0001)     ;
(PID.TID 0000.0001) useNHMTerms = /* Non-Hydrostatic Metric-Terms on/off */
(PID.TID 0000.0001)                   F
(PID.TID 0000.0001)     ;
(PID.TID 0000.0001) selectCoriMap = /* Coriolis Map options (0,1,2,3)*/
(PID.TID 0000.0001)                       2
(PID.TID 0000.0001)     0= f-Plane ; 1= Beta-Plane ; 2= Spherical ; 3= read from file
(PID.TID 0000.0001)     ;
(PID.TID 0000.0001) use3dCoriolis = /* 3-D Coriolis on/off flag */
(PID.TID 0000.0001)                   F
(PID.TID 0000.0001)     ;
(PID.TID 0000.0001) useCoriolis =  /* Coriolis on/off flag */
(PID.TID 0000.0001)                   T
(PID.TID 0000.0001)     ;
(PID.TID 0000.0001) useCDscheme =  /* CD scheme on/off flag */
(PID.TID 0000.0001)                   T
(PID.TID 0000.0001)     ;
(PID.TID 0000.0001) selectCoriScheme= /* Scheme selector for Coriolis-Term */
(PID.TID 0000.0001)                       0
(PID.TID 0000.0001)    = 0 : original discretization (simple averaging, no hFac)
(PID.TID 0000.0001)    = 1 : Wet-point averaging (Jamar & Ozer 1986)
(PID.TID 0000.0001)    = 2 : energy conserving scheme (no hFac weight)
(PID.TID 0000.0001)    = 3 : energy conserving scheme using Wet-point averaging
(PID.TID 0000.0001)     ;
(PID.TID 0000.0001) momForcing =  /* Momentum forcing on/off flag */
(PID.TID 0000.0001)                   T
(PID.TID 0000.0001)     ;
(PID.TID 0000.0001) momTidalForcing = /* Momentum Tidal forcing on/off flag */
(PID.TID 0000.0001)                   T
(PID.TID 0000.0001)     ;
(PID.TID 0000.0001) momPressureForcing =  /* Momentum pressure term on/off flag */
(PID.TID 0000.0001)                   T
(PID.TID 0000.0001)     ;
(PID.TID 0000.0001) implicitIntGravWave= /* Implicit Internal Gravity Wave flag */
(PID.TID 0000.0001)                   F
(PID.TID 0000.0001)     ;
(PID.TID 0000.0001) staggerTimeStep =    /* Stagger time stepping on/off flag */
(PID.TID 0000.0001)                   T
(PID.TID 0000.0001)     ;
(PID.TID 0000.0001) doResetHFactors = /* reset thickness factors @ each time-step */
(PID.TID 0000.0001)                   F
(PID.TID 0000.0001)     ;
(PID.TID 0000.0001) multiDimAdvection =  /* enable/disable Multi-Dim Advection */
(PID.TID 0000.0001)                   T
(PID.TID 0000.0001)     ;
(PID.TID 0000.0001) useMultiDimAdvec =   /* Multi-Dim Advection is/is-not used */
(PID.TID 0000.0001)                   T
(PID.TID 0000.0001)     ;
(PID.TID 0000.0001) implicitDiffusion = /* Implicit Diffusion on/off flag */
(PID.TID 0000.0001)                   T
(PID.TID 0000.0001)     ;
(PID.TID 0000.0001) tempStepping =  /* Temperature equation on/off flag */
(PID.TID 0000.0001)                   T
(PID.TID 0000.0001)     ;
(PID.TID 0000.0001) tempAdvection = /* Temperature advection on/off flag */
(PID.TID 0000.0001)                   T
(PID.TID 0000.0001)     ;
(PID.TID 0000.0001) tempImplVertAdv = /* Temp. implicit vert. advection on/off */
(PID.TID 0000.0001)                   F
(PID.TID 0000.0001)     ;
(PID.TID 0000.0001) tempForcing  =  /* Temperature forcing on/off flag */
(PID.TID 0000.0001)                   T
(PID.TID 0000.0001)     ;
(PID.TID 0000.0001) doThetaClimRelax = /* apply SST relaxation on/off flag */
(PID.TID 0000.0001)                   T
(PID.TID 0000.0001)     ;
(PID.TID 0000.0001) tempIsActiveTr = /* Temp. is a dynamically Active Tracer */
(PID.TID 0000.0001)                   T
(PID.TID 0000.0001)     ;
(PID.TID 0000.0001) saltStepping =  /* Salinity equation on/off flag */
(PID.TID 0000.0001)                   F
(PID.TID 0000.0001)     ;
(PID.TID 0000.0001) saltAdvection = /* Salinity advection on/off flag */
(PID.TID 0000.0001)                   F
(PID.TID 0000.0001)     ;
(PID.TID 0000.0001) saltImplVertAdv = /* Sali. implicit vert. advection on/off */
(PID.TID 0000.0001)                   F
(PID.TID 0000.0001)     ;
(PID.TID 0000.0001) saltForcing  =  /* Salinity forcing on/off flag */
(PID.TID 0000.0001)                   F
(PID.TID 0000.0001)     ;
(PID.TID 0000.0001) doSaltClimRelax = /* apply SSS relaxation on/off flag */
(PID.TID 0000.0001)                   F
(PID.TID 0000.0001)     ;
(PID.TID 0000.0001) saltIsActiveTr = /* Salt  is a dynamically Active Tracer */
(PID.TID 0000.0001)                   F
(PID.TID 0000.0001)     ;
(PID.TID 0000.0001)  readBinaryPrec = /* Precision used for reading binary files */
(PID.TID 0000.0001)                      64
(PID.TID 0000.0001)     ;
(PID.TID 0000.0001) writeBinaryPrec = /* Precision used for writing binary files */
(PID.TID 0000.0001)                      32
(PID.TID 0000.0001)     ;
(PID.TID 0000.0001)  rwSuffixType =   /* select format of mds file suffix */
(PID.TID 0000.0001)                       0
(PID.TID 0000.0001)    = 0 : myIter (I10.10) ;   = 1 : 100*myTime (100th sec) ;
(PID.TID 0000.0001)    = 2 : myTime (seconds);   = 3 : myTime/360 (10th of hr);
(PID.TID 0000.0001)    = 4 : myTime/3600 (hours)
(PID.TID 0000.0001)     ;
(PID.TID 0000.0001)  globalFiles = /* write "global" (=not per tile) files */
(PID.TID 0000.0001)                   F
(PID.TID 0000.0001)     ;
(PID.TID 0000.0001)  useSingleCpuIO = /* only master MPI process does I/O */
(PID.TID 0000.0001)                   F
(PID.TID 0000.0001)     ;
(PID.TID 0000.0001)  useSingleCpuInput = /* only master process reads input */
(PID.TID 0000.0001)                   F
(PID.TID 0000.0001)     ;
(PID.TID 0000.0001) /* debLev[*]  : level of debug & auxiliary message printing */
(PID.TID 0000.0001) debLevZero =  0 ; /* level of disabled aux. msg printing */
(PID.TID 0000.0001)    debLevA =  1 ; /* level of minimum  aux. msg printing */
(PID.TID 0000.0001)    debLevB =  2 ; /* level of low aux. print (report read-file opening)*/
(PID.TID 0000.0001)    debLevC =  3 ; /* level of moderate debug prt (most pkgs debug msg) */
(PID.TID 0000.0001)    debLevD =  4 ; /* level of enhanced debug prt (add DEBUG_STATS prt) */
(PID.TID 0000.0001)    debLevE =  5 ; /* level of extensive debug printing */
(PID.TID 0000.0001) debugLevel =  /* select debug printing level */
(PID.TID 0000.0001)                       2
(PID.TID 0000.0001)     ;
(PID.TID 0000.0001)  plotLevel =  /* select PLOT_FIELD printing level */
(PID.TID 0000.0001)                       2
(PID.TID 0000.0001)     ;
(PID.TID 0000.0001) //
(PID.TID 0000.0001) // Elliptic solver(s) paramters ( PARM02 in namelist )
(PID.TID 0000.0001) //
(PID.TID 0000.0001) cg2dMaxIters =   /* Upper limit on 2d con. grad iterations  */
(PID.TID 0000.0001)                    1000
(PID.TID 0000.0001)     ;
(PID.TID 0000.0001) cg2dMinItersNSA =   /* Minimum number of iterations of 2d con. grad solver  */
(PID.TID 0000.0001)                       0
(PID.TID 0000.0001)     ;
(PID.TID 0000.0001) cg2dUseMinResSol= /* use cg2d last-iter(=0) / min-resid.(=1) solution */
(PID.TID 0000.0001)                       0
(PID.TID 0000.0001)     ;
(PID.TID 0000.0001) cg2dTargetResidual =   /* 2d con. grad target residual  */
(PID.TID 0000.0001)                 1.000000000000000E-07
(PID.TID 0000.0001)     ;
(PID.TID 0000.0001) cg2dTargetResWunit =   /* CG2d target residual [W units] */
(PID.TID 0000.0001)                 1.000000000000000E-17
(PID.TID 0000.0001)     ;
(PID.TID 0000.0001) cg2dPreCondFreq =   /* Freq. for updating cg2d preconditioner */
(PID.TID 0000.0001)                       1
(PID.TID 0000.0001)     ;
(PID.TID 0000.0001) useSRCGSolver =  /* use single reduction CG solver(s) */
(PID.TID 0000.0001)                   F
(PID.TID 0000.0001)     ;
(PID.TID 0000.0001) useNSACGSolver =  /* use not-self-adjoint CG solver */
(PID.TID 0000.0001)                   F
(PID.TID 0000.0001)     ;
(PID.TID 0000.0001) printResidualFreq = /* Freq. for printing CG residual */
(PID.TID 0000.0001)                       0
(PID.TID 0000.0001)     ;
(PID.TID 0000.0001) //
(PID.TID 0000.0001) // Time stepping paramters ( PARM03 in namelist )
(PID.TID 0000.0001) //
(PID.TID 0000.0001) deltaTMom =   /* Momentum equation timestep ( s ) */
(PID.TID 0000.0001)                 1.200000000000000E+03
(PID.TID 0000.0001)     ;
(PID.TID 0000.0001) deltaTFreeSurf = /* FreeSurface equation timestep ( s ) */
(PID.TID 0000.0001)                 3.600000000000000E+03
(PID.TID 0000.0001)     ;
(PID.TID 0000.0001) dTtracerLev =  /* Tracer equation timestep ( s ) */
(PID.TID 0000.0001)    15 @  8.640000000000000E+04              /* K =  1: 15 */
(PID.TID 0000.0001)     ;
(PID.TID 0000.0001) deltaTClock  =   /* Model clock timestep ( s ) */
(PID.TID 0000.0001)                 8.640000000000000E+04
(PID.TID 0000.0001)     ;
(PID.TID 0000.0001) cAdjFreq =   /* Convective adjustment interval ( s ) */
(PID.TID 0000.0001)                 0.000000000000000E+00
(PID.TID 0000.0001)     ;
(PID.TID 0000.0001) momForcingOutAB = /* =1: take Momentum Forcing out of Adams-Bash. stepping */
(PID.TID 0000.0001)                       0
(PID.TID 0000.0001)     ;
(PID.TID 0000.0001) tracForcingOutAB = /* =1: take T,S,pTr Forcing out of Adams-Bash. stepping */
(PID.TID 0000.0001)                       0
(PID.TID 0000.0001)     ;
(PID.TID 0000.0001) momDissip_In_AB = /* put Dissipation Tendency in Adams-Bash. stepping */
(PID.TID 0000.0001)                   T
(PID.TID 0000.0001)     ;
(PID.TID 0000.0001) doAB_onGtGs = /* apply AB on Tendencies (rather than on T,S)*/
(PID.TID 0000.0001)                   T
(PID.TID 0000.0001)     ;
(PID.TID 0000.0001) abEps =   /* Adams-Bashforth-2 stabilizing weight */
(PID.TID 0000.0001)                 1.000000000000000E-01
(PID.TID 0000.0001)     ;
(PID.TID 0000.0001) applyExchUV_early = /* Apply EXCH to U,V earlier in time-step */
(PID.TID 0000.0001)                   F
(PID.TID 0000.0001)     ;
(PID.TID 0000.0001) tauCD =   /* CD coupling time-scale ( s ) */
(PID.TID 0000.0001)                 3.214280000000000E+05
(PID.TID 0000.0001)     ;
(PID.TID 0000.0001) rCD =   /* Normalised CD coupling parameter */
(PID.TID 0000.0001)                 9.962666600296178E-01
(PID.TID 0000.0001)     ;
(PID.TID 0000.0001) epsAB_CD = /* AB-2 stabilizing weight for CD-scheme*/
(PID.TID 0000.0001)                 1.000000000000000E-01
(PID.TID 0000.0001)     ;
(PID.TID 0000.0001) pickupStrictlyMatch= /* stop if pickup do not strictly match */
(PID.TID 0000.0001)                   F
(PID.TID 0000.0001)     ;
(PID.TID 0000.0001) nIter0   =   /* Run starting timestep number */
(PID.TID 0000.0001)                   36000
(PID.TID 0000.0001)     ;
(PID.TID 0000.0001) nTimeSteps = /* Number of timesteps */
(PID.TID 0000.0001)                      20
(PID.TID 0000.0001)     ;
(PID.TID 0000.0001) nEndIter =   /* Run ending timestep number */
(PID.TID 0000.0001)                   36020
(PID.TID 0000.0001)     ;
(PID.TID 0000.0001) baseTime =   /* Model base time ( s ) */
(PID.TID 0000.0001)                 0.000000000000000E+00
(PID.TID 0000.0001)     ;
(PID.TID 0000.0001) startTime =  /* Run start time ( s ) */
(PID.TID 0000.0001)                 3.110400000000000E+09
(PID.TID 0000.0001)     ;
(PID.TID 0000.0001) endTime  =   /* Integration ending time ( s ) */
(PID.TID 0000.0001)                 3.112128000000000E+09
(PID.TID 0000.0001)     ;
(PID.TID 0000.0001) pChkPtFreq = /* Permanent restart/pickup file interval ( s ) */
(PID.TID 0000.0001)                 3.110400000000000E+09
(PID.TID 0000.0001)     ;
(PID.TID 0000.0001) chkPtFreq  = /* Rolling restart/pickup file interval ( s ) */
(PID.TID 0000.0001)                 0.000000000000000E+00
(PID.TID 0000.0001)     ;
(PID.TID 0000.0001) pickup_write_mdsio =   /* Model IO flag. */
(PID.TID 0000.0001)                   T
(PID.TID 0000.0001)     ;
(PID.TID 0000.0001) pickup_read_mdsio =   /* Model IO flag. */
(PID.TID 0000.0001)                   T
(PID.TID 0000.0001)     ;
(PID.TID 0000.0001) pickup_write_mnc =   /* Model IO flag. */
(PID.TID 0000.0001)                   F
(PID.TID 0000.0001)     ;
(PID.TID 0000.0001) pickup_read_mnc =   /* Model IO flag. */
(PID.TID 0000.0001)                   F
(PID.TID 0000.0001)     ;
(PID.TID 0000.0001) writePickupAtEnd =   /* Model IO flag. */
(PID.TID 0000.0001)                   T
(PID.TID 0000.0001)     ;
(PID.TID 0000.0001) dumpFreq =   /* Model state write out interval ( s ). */
(PID.TID 0000.0001)                 1.555200000000000E+09
(PID.TID 0000.0001)     ;
(PID.TID 0000.0001) dumpInitAndLast= /* write out Initial & Last iter. model state */
(PID.TID 0000.0001)                   T
(PID.TID 0000.0001)     ;
(PID.TID 0000.0001) snapshot_mdsio =   /* Model IO flag. */
(PID.TID 0000.0001)                   F
(PID.TID 0000.0001)     ;
(PID.TID 0000.0001) snapshot_mnc =   /* Model IO flag. */
(PID.TID 0000.0001)                   T
(PID.TID 0000.0001)     ;
(PID.TID 0000.0001) monitorFreq =   /* Monitor output interval ( s ). */
(PID.TID 0000.0001)                 1.000000000000000E+00
(PID.TID 0000.0001)     ;
(PID.TID 0000.0001) monitorSelect = /* select group of variables to monitor */
(PID.TID 0000.0001)                       2
(PID.TID 0000.0001)     ;
(PID.TID 0000.0001) monitor_stdio =   /* Model IO flag. */
(PID.TID 0000.0001)                   T
(PID.TID 0000.0001)     ;
(PID.TID 0000.0001) monitor_mnc =   /* Model IO flag. */
(PID.TID 0000.0001)                   F
(PID.TID 0000.0001)     ;
(PID.TID 0000.0001) externForcingPeriod =   /* forcing period (s) */
(PID.TID 0000.0001)                 0.000000000000000E+00
(PID.TID 0000.0001)     ;
(PID.TID 0000.0001) externForcingCycle =   /* period of the cyle (s). */
(PID.TID 0000.0001)                 0.000000000000000E+00
(PID.TID 0000.0001)     ;
(PID.TID 0000.0001) tauThetaClimRelax =   /* relaxation time scale (s) */
(PID.TID 0000.0001)                 2.592000000000000E+06
(PID.TID 0000.0001)     ;
(PID.TID 0000.0001) tauSaltClimRelax =   /* relaxation time scale (s) */
(PID.TID 0000.0001)                 0.000000000000000E+00
(PID.TID 0000.0001)     ;
(PID.TID 0000.0001) latBandClimRelax =   /* max. Lat. where relaxation */
(PID.TID 0000.0001)                 1.800000000000000E+02
(PID.TID 0000.0001)     ;
(PID.TID 0000.0001) //
(PID.TID 0000.0001) // Gridding paramters ( PARM04 in namelist )
(PID.TID 0000.0001) //
(PID.TID 0000.0001) usingCartesianGrid = /* Cartesian coordinates flag ( True/False ) */
(PID.TID 0000.0001)                   F
(PID.TID 0000.0001)     ;
(PID.TID 0000.0001) usingCylindricalGrid = /* Cylindrical coordinates flag ( True/False ) */
(PID.TID 0000.0001)                   F
(PID.TID 0000.0001)     ;
(PID.TID 0000.0001) usingSphericalPolarGrid = /* Spherical coordinates flag ( True/False ) */
(PID.TID 0000.0001)                   T
(PID.TID 0000.0001)     ;
(PID.TID 0000.0001) usingCurvilinearGrid = /* Curvilinear coordinates flag ( True/False ) */
(PID.TID 0000.0001)                   F
(PID.TID 0000.0001)     ;
(PID.TID 0000.0001) useMin4hFacEdges = /* set hFacW,S as minimum of adjacent hFacC factor */
(PID.TID 0000.0001)                   F
(PID.TID 0000.0001)     ;
(PID.TID 0000.0001) interViscAr_pCell = /* account for partial-cell in interior vert. viscosity */
(PID.TID 0000.0001)                   F
(PID.TID 0000.0001)     ;
(PID.TID 0000.0001) interDiffKr_pCell = /* account for partial-cell in interior vert. diffusion */
(PID.TID 0000.0001)                   F
(PID.TID 0000.0001)     ;
(PID.TID 0000.0001) pCellMix_select = /* option to enhance mixing near surface & bottom */
(PID.TID 0000.0001)                       0
(PID.TID 0000.0001)     ;
(PID.TID 0000.0001) selectSigmaCoord = /* Hybrid-Sigma Vert. Coordinate option */
(PID.TID 0000.0001)                       0
(PID.TID 0000.0001)     ;
(PID.TID 0000.0001) rSigmaBnd = /* r/sigma transition ( units of r ==  m ) */
(PID.TID 0000.0001)                 1.234567000000000E+05
(PID.TID 0000.0001)     ;
(PID.TID 0000.0001) rkSign =   /* index orientation relative to vertical coordinate */
(PID.TID 0000.0001)                -1.000000000000000E+00
(PID.TID 0000.0001)     ;
(PID.TID 0000.0001) gravitySign = /* gravity orientation relative to vertical coordinate */
(PID.TID 0000.0001)                -1.000000000000000E+00
(PID.TID 0000.0001)     ;
(PID.TID 0000.0001) seaLev_Z =  /* reference height of sea-level [m] */
(PID.TID 0000.0001)                 0.000000000000000E+00
(PID.TID 0000.0001)     ;
(PID.TID 0000.0001) top_Pres =  /* reference pressure at the top [Pa] */
(PID.TID 0000.0001)                 0.000000000000000E+00
(PID.TID 0000.0001)     ;
[...]
(PID.TID 0000.0001)      cg2d_init_res =   3.95801557704120E-03
(PID.TID 0000.0001)      cg2d_iters(min,last) =      -1      27
(PID.TID 0000.0001)      cg2d_last_res =   1.50549363831195E-17
(PID.TID 0000.0001) // =======================================================
(PID.TID 0000.0001) // Begin MONITOR dynamic field statistics
(PID.TID 0000.0001) // =======================================================
(PID.TID 0000.0001) %MON time_tsnumber                =                 36020
(PID.TID 0000.0001) %MON time_secondsf                =   3.1121280000000E+09
(PID.TID 0000.0001) %MON dynstat_eta_max              =   1.6167440116770E+00
(PID.TID 0000.0001) %MON dynstat_eta_min              =  -3.9277613935107E+00
(PID.TID 0000.0001) %MON dynstat_eta_mean             =  -2.9783971202332E-16
(PID.TID 0000.0001) %MON dynstat_eta_sd               =   1.6506281093884E+00
(PID.TID 0000.0001) %MON dynstat_eta_del2             =   8.2856043351859E-03
(PID.TID 0000.0001) %MON dynstat_uvel_max             =   1.4253676404753E-01
(PID.TID 0000.0001) %MON dynstat_uvel_min             =  -3.8629515671872E-01
(PID.TID 0000.0001) %MON dynstat_uvel_mean            =   1.2764254583677E-02
(PID.TID 0000.0001) %MON dynstat_uvel_sd              =   3.8699565636383E-02
(PID.TID 0000.0001) %MON dynstat_uvel_del2            =   1.3216734147096E-04
(PID.TID 0000.0001) %MON dynstat_vvel_max             =   2.3283365578131E-02
(PID.TID 0000.0001) %MON dynstat_vvel_min             =  -2.3283365578109E-02
(PID.TID 0000.0001) %MON dynstat_vvel_mean            =  -6.6692986818610E-16
(PID.TID 0000.0001) %MON dynstat_vvel_sd              =   1.5562404024591E-03
(PID.TID 0000.0001) %MON dynstat_vvel_del2            =   3.0931544575709E-05
(PID.TID 0000.0001) %MON dynstat_wvel_max             =   1.6516033613281E-06
(PID.TID 0000.0001) %MON dynstat_wvel_min             =  -7.4541572379234E-07
(PID.TID 0000.0001) %MON dynstat_wvel_mean            =  -5.8565378095355E-24
(PID.TID 0000.0001) %MON dynstat_wvel_sd              =   2.7296710135459E-07
(PID.TID 0000.0001) %MON dynstat_wvel_del2            =   9.2455700507648E-09
(PID.TID 0000.0001) %MON dynstat_theta_max            =   2.6664235108674E+01
(PID.TID 0000.0001) %MON dynstat_theta_min            =  -9.3083356400408E-01
(PID.TID 0000.0001) %MON dynstat_theta_mean           =   2.2243012961604E+00
(PID.TID 0000.0001) %MON dynstat_theta_sd             =   3.9279251817034E+00
(PID.TID 0000.0001) %MON dynstat_theta_del2           =   1.3390031884669E-02
(PID.TID 0000.0001) %MON dynstat_salt_max             =   3.4700000000000E+01
(PID.TID 0000.0001) %MON dynstat_salt_min             =   3.4700000000000E+01
(PID.TID 0000.0001) %MON dynstat_salt_mean            =   3.4700000000000E+01
(PID.TID 0000.0001) %MON dynstat_salt_sd              =   7.1054273576010E-15
(PID.TID 0000.0001) %MON dynstat_salt_del2            =   0.0000000000000E+00
(PID.TID 0000.0001) %MON trAdv_CFL_u_max              =   1.0011367631247E-01
(PID.TID 0000.0001) %MON trAdv_CFL_v_max              =   5.9876104181821E-03
(PID.TID 0000.0001) %MON trAdv_CFL_w_max              =   4.4347806447469E-03
(PID.TID 0000.0001) %MON advcfl_uvel_max              =   1.0010224056571E-01
(PID.TID 0000.0001) %MON advcfl_vvel_max              =   6.0314460153891E-03
(PID.TID 0000.0001) %MON advcfl_wvel_max              =   2.3783088403125E-03
(PID.TID 0000.0001) %MON advcfl_W_hf_max              =   2.8539706083750E-03
(PID.TID 0000.0001) %MON pe_b_mean                    =   2.5700060245660E-03
(PID.TID 0000.0001) %MON ke_max                       =   7.4642148944282E-02
(PID.TID 0000.0001) %MON ke_mean                      =   8.3159178505321E-04
(PID.TID 0000.0001) %MON ke_vol                       =   2.1823819113454E+16
(PID.TID 0000.0001) %MON vort_r_min                   =  -1.7706944174972E-07
(PID.TID 0000.0001) %MON vort_r_max                   =   1.7706944174931E-07
(PID.TID 0000.0001) %MON vort_a_mean                  =  -1.9502878189288E-20
(PID.TID 0000.0001) %MON vort_a_sd                    =   8.3492804299304E-05
(PID.TID 0000.0001) %MON vort_p_mean                  =  -1.9624460917730E-20
(PID.TID 0000.0001) %MON vort_p_sd                    =   8.6788028425471E-05
(PID.TID 0000.0001) %MON surfExpan_theta_mean         =   2.3616339886172E-06
(PID.TID 0000.0001) %MON surfExpan_salt_mean          =   4.4381575587886E-22
(PID.TID 0000.0001) // =======================================================
(PID.TID 0000.0001) // End MONITOR dynamic field statistics
(PID.TID 0000.0001) // =======================================================
 Computing Diagnostic #     30  UVEL         Counter:      20   Parms: UUR     MR      
           Vector  Mate for  UVEL         Diagnostic #     31  VVEL     exists 
 Computing Diagnostic #     31  VVEL         Counter:      20   Parms: VVR     MR      
           Vector  Mate for  VVEL         Diagnostic #     30  UVEL     exists 
 Computing Diagnostic #     32  WVEL         Counter:      20   Parms: WM      LR      
 Computing Diagnostic #     71  PHIHYD       Counter:      20   Parms: SMR     MR      
 Computing Diagnostic #     46  VVELMASS     Counter:      20   Parms: VVr     MR      
           Vector  Mate for  VVELMASS     Diagnostic #     45  UVELMASS not enabled
 Computing Diagnostic #     26  THETA        Counter:      20   Parms: SMR     MR      
 Computing Diagnostic #     51  VTHMASS      Counter:      20   Parms: VVr     MR      
           Vector  Mate for  VTHMASS      Diagnostic #     50  UTHMASS  not enabled
 Computing Diagnostic #     52  WTHMASS      Counter:      20   Parms: WM      LR      
 Computing Diagnostic #     33  THETASQ      Counter:      20   Parms: SMRP    MR      
 Computing Diagnostic #     36  UVELSQ       Counter:      20   Parms: UURP    MR      
           Vector  Mate for  UVELSQ       Diagnostic #     37  VVELSQ   not enabled
 Computing Diagnostic #     42  UV_VEL_Z     Counter:      20   Parms: UZR     MR      
           Vector  Mate for  UV_VEL_Z     Diagnostic #     42  UV_VEL_Z exists 
 Computing Diagnostic #     43  WU_VEL       Counter:      20   Parms: WU      LR      
 Computing Diagnostic #     77  DRHODR       Counter:      10   Parms: SM      LR      
 Computing Diagnostic #     64  RHOAnoma     Counter:      10   Parms: SMR     MR      
 Computing Diagnostic #    218  GM_PsiY      Counter:      10   Parms: VV      LR      
           Vector  Mate for  GM_PsiY      Diagnostic #    217  GM_PsiX  not enabled
 Computing Diagnostic #    211  GM_Kvy       Counter:      10   Parms: VV P    MR      
           Vector  Mate for  GM_Kvy       Diagnostic #    210  GM_Kux   not enabled
 Computing Diagnostic #    213  GM_Kvz       Counter:      10   Parms: VV      MR      
           Vector  Mate for  GM_Kvz       Diagnostic #    212  GM_Kuz   not enabled
 Computing Diagnostic #    215  GM_Kwy       Counter:      10   Parms: VM      LR      
           Vector  Mate for  GM_Kwy       Diagnostic #    214  GM_Kwx   not enabled
 Computing Diagnostic #    216  GM_Kwz       Counter:      10   Parms: WM P    LR      
 Computing Diagnostic #    111  ADVy_TH      Counter:      20   Parms: VV      MR      
           Vector  Mate for  ADVy_TH      Diagnostic #    110  ADVx_TH  not enabled
 Computing Diagnostic #    109  ADVr_TH      Counter:      20   Parms: WM      LR      
 Computing Diagnostic #    114  DFyE_TH      Counter:      20   Parms: VV      MR      
           Vector  Mate for  DFyE_TH      Diagnostic #    113  DFxE_TH  not enabled
 Computing Diagnostic #    112  DFrE_TH      Counter:      20   Parms: WM      LR      
 Computing Diagnostic #    115  DFrI_TH      Counter:      20   Parms: WM      LR      
GMREDI_WRITE_PICKUP: writing GEOM msdio pickup
(PID.TID 0000.0001) %CHECKPOINT     36020 ckptA
(PID.TID 0000.0001)   Seconds in section "ALL                    [THE_MODEL_MAIN]":
(PID.TID 0000.0001)           User time:  0.97367500700056553
(PID.TID 0000.0001)         System time:   1.6143000684678555E-002
(PID.TID 0000.0001)     Wall clock time:  0.99075984954833984
(PID.TID 0000.0001)          No. starts:           1
(PID.TID 0000.0001)           No. stops:           1
(PID.TID 0000.0001)   Seconds in section "INITIALISE_FIXED       [THE_MODEL_MAIN]":
(PID.TID 0000.0001)           User time:  0.16837300499901175
(PID.TID 0000.0001)         System time:   4.8269997350871563E-003
(PID.TID 0000.0001)     Wall clock time:  0.17347383499145508
(PID.TID 0000.0001)          No. starts:           1
(PID.TID 0000.0001)           No. stops:           1
(PID.TID 0000.0001)   Seconds in section "THE_MAIN_LOOP          [THE_MODEL_MAIN]":
(PID.TID 0000.0001)           User time:  0.80414302647113800
(PID.TID 0000.0001)         System time:   1.0571999475359917E-002
(PID.TID 0000.0001)     Wall clock time:  0.81538605690002441
(PID.TID 0000.0001)          No. starts:           1
(PID.TID 0000.0001)           No. stops:           1
(PID.TID 0000.0001)   Seconds in section "INITIALISE_VARIA    [THE_MAIN_LOOP]":
(PID.TID 0000.0001)           User time:   2.5015994906425476E-002
(PID.TID 0000.0001)         System time:   1.4899997040629387E-003
(PID.TID 0000.0001)     Wall clock time:   2.6558876037597656E-002
(PID.TID 0000.0001)          No. starts:           1
(PID.TID 0000.0001)           No. stops:           1
(PID.TID 0000.0001)   Seconds in section "MAIN LOOP           [THE_MAIN_LOOP]":
(PID.TID 0000.0001)           User time:  0.77911101281642914
(PID.TID 0000.0001)         System time:   9.0799992904067039E-003
(PID.TID 0000.0001)     Wall clock time:  0.78881001472473145
(PID.TID 0000.0001)          No. starts:           1
(PID.TID 0000.0001)           No. stops:           1
(PID.TID 0000.0001)   Seconds in section "MAIN_DO_LOOP        [THE_MAIN_LOOP]":
(PID.TID 0000.0001)           User time:  0.77900898456573486
(PID.TID 0000.0001)         System time:   9.0769985690712929E-003
(PID.TID 0000.0001)     Wall clock time:  0.78870487213134766
(PID.TID 0000.0001)          No. starts:          20
(PID.TID 0000.0001)           No. stops:          20
(PID.TID 0000.0001)   Seconds in section "FORWARD_STEP        [MAIN_DO_LOOP]":
(PID.TID 0000.0001)           User time:  0.77881693840026855
(PID.TID 0000.0001)         System time:   9.0670036152005196E-003
(PID.TID 0000.0001)     Wall clock time:  0.78850483894348145
(PID.TID 0000.0001)          No. starts:          20
(PID.TID 0000.0001)           No. stops:          20
(PID.TID 0000.0001)   Seconds in section "DO_STATEVARS_DIAGS  [FORWARD_STEP]":
(PID.TID 0000.0001)           User time:   6.1748921871185303E-003
(PID.TID 0000.0001)         System time:   4.8001296818256378E-005
(PID.TID 0000.0001)     Wall clock time:   6.2263011932373047E-003
(PID.TID 0000.0001)          No. starts:          60
(PID.TID 0000.0001)           No. stops:          60
(PID.TID 0000.0001)   Seconds in section "LOAD_FIELDS_DRIVER  [FORWARD_STEP]":
(PID.TID 0000.0001)           User time:   2.8598308563232422E-004
(PID.TID 0000.0001)         System time:   1.6000121831893921E-005
(PID.TID 0000.0001)     Wall clock time:   3.0446052551269531E-004
(PID.TID 0000.0001)          No. starts:          20
(PID.TID 0000.0001)           No. stops:          20
(PID.TID 0000.0001)   Seconds in section "EXTERNAL_FLDS_LOAD [LOAD_FLDS_DRIVER]":
(PID.TID 0000.0001)           User time:   9.6961855888366699E-005
(PID.TID 0000.0001)         System time:   6.0005113482475281E-006
(PID.TID 0000.0001)     Wall clock time:   1.0633468627929688E-004
(PID.TID 0000.0001)          No. starts:          20
(PID.TID 0000.0001)           No. stops:          20
(PID.TID 0000.0001)   Seconds in section "DO_ATMOSPHERIC_PHYS [FORWARD_STEP]":
(PID.TID 0000.0001)           User time:   9.6946954727172852E-005
(PID.TID 0000.0001)         System time:   3.0007213354110718E-006
(PID.TID 0000.0001)     Wall clock time:   9.8943710327148438E-005
(PID.TID 0000.0001)          No. starts:          20
(PID.TID 0000.0001)           No. stops:          20
(PID.TID 0000.0001)   Seconds in section "DO_OCEANIC_PHYS     [FORWARD_STEP]":
(PID.TID 0000.0001)           User time:  0.13343004882335663
(PID.TID 0000.0001)         System time:   2.6000104844570160E-004
(PID.TID 0000.0001)     Wall clock time:  0.13370919227600098
(PID.TID 0000.0001)          No. starts:          20
(PID.TID 0000.0001)           No. stops:          20
(PID.TID 0000.0001)   Seconds in section "DYNAMICS            [FORWARD_STEP]":
(PID.TID 0000.0001)           User time:  0.16812609136104584
(PID.TID 0000.0001)         System time:   2.9600039124488831E-004
(PID.TID 0000.0001)     Wall clock time:  0.16845130920410156
(PID.TID 0000.0001)          No. starts:          20
(PID.TID 0000.0001)           No. stops:          20
(PID.TID 0000.0001)   Seconds in section "SOLVE_FOR_PRESSURE  [FORWARD_STEP]":
(PID.TID 0000.0001)           User time:   1.2897074222564697E-002
(PID.TID 0000.0001)         System time:   3.9000995457172394E-005
(PID.TID 0000.0001)     Wall clock time:   1.2959003448486328E-002
(PID.TID 0000.0001)          No. starts:          20
(PID.TID 0000.0001)           No. stops:          20
(PID.TID 0000.0001)   Seconds in section "MOM_CORRECTION_STEP [FORWARD_STEP]":
(PID.TID 0000.0001)           User time:   6.4970552921295166E-003
(PID.TID 0000.0001)         System time:   9.9986791610717773E-006
(PID.TID 0000.0001)     Wall clock time:   6.5212249755859375E-003
(PID.TID 0000.0001)          No. starts:          20
(PID.TID 0000.0001)           No. stops:          20
(PID.TID 0000.0001)   Seconds in section "INTEGR_CONTINUITY   [FORWARD_STEP]":
(PID.TID 0000.0001)           User time:   3.9238780736923218E-003
(PID.TID 0000.0001)         System time:   5.0002709031105042E-006
(PID.TID 0000.0001)     Wall clock time:   3.9331912994384766E-003
(PID.TID 0000.0001)          No. starts:          20
(PID.TID 0000.0001)           No. stops:          20
(PID.TID 0000.0001)   Seconds in section "BLOCKING_EXCHANGES  [FORWARD_STEP]":
(PID.TID 0000.0001)           User time:   2.5218009948730469E-002
(PID.TID 0000.0001)         System time:   6.5000727772712708E-005
(PID.TID 0000.0001)     Wall clock time:   2.5299549102783203E-002
(PID.TID 0000.0001)          No. starts:          40
(PID.TID 0000.0001)           No. stops:          40
(PID.TID 0000.0001)   Seconds in section "THERMODYNAMICS      [FORWARD_STEP]":
(PID.TID 0000.0001)           User time:  0.12949195504188538
(PID.TID 0000.0001)         System time:   2.8799939900636673E-004
(PID.TID 0000.0001)     Wall clock time:  0.12981557846069336
(PID.TID 0000.0001)          No. starts:          20
(PID.TID 0000.0001)           No. stops:          20
(PID.TID 0000.0001)   Seconds in section "TRC_CORRECTION_STEP [FORWARD_STEP]":
(PID.TID 0000.0001)           User time:   9.3996524810791016E-005
(PID.TID 0000.0001)         System time:   1.9995495676994324E-006
(PID.TID 0000.0001)     Wall clock time:   9.9897384643554688E-005
(PID.TID 0000.0001)          No. starts:          20
(PID.TID 0000.0001)           No. stops:          20
(PID.TID 0000.0001)   Seconds in section "DO_STATEVARS_TAVE   [FORWARD_STEP]":
(PID.TID 0000.0001)           User time:   5.1148533821105957E-003
(PID.TID 0000.0001)         System time:   9.0003013610839844E-006
(PID.TID 0000.0001)     Wall clock time:   5.1355361938476562E-003
(PID.TID 0000.0001)          No. starts:          20
(PID.TID 0000.0001)           No. stops:          20
(PID.TID 0000.0001)   Seconds in section "MONITOR             [FORWARD_STEP]":
(PID.TID 0000.0001)           User time:   1.3887137174606323E-002
(PID.TID 0000.0001)         System time:   2.3000128567218781E-004
(PID.TID 0000.0001)     Wall clock time:   1.4141082763671875E-002
(PID.TID 0000.0001)          No. starts:          20
(PID.TID 0000.0001)           No. stops:          20
(PID.TID 0000.0001)   Seconds in section "DO_THE_MODEL_IO     [FORWARD_STEP]":
(PID.TID 0000.0001)           User time:  0.27068598568439484
(PID.TID 0000.0001)         System time:   4.0979990735650063E-003
(PID.TID 0000.0001)     Wall clock time:  0.27513504028320312
(PID.TID 0000.0001)          No. starts:          20
(PID.TID 0000.0001)           No. stops:          20
(PID.TID 0000.0001)   Seconds in section "DO_WRITE_PICKUP     [FORWARD_STEP]":
(PID.TID 0000.0001)           User time:   8.9696049690246582E-004
(PID.TID 0000.0001)         System time:   3.5739997401833534E-003
(PID.TID 0000.0001)     Wall clock time:   4.7309398651123047E-003
(PID.TID 0000.0001)          No. starts:          20
(PID.TID 0000.0001)           No. stops:          20
(PID.TID 0000.0001) // ======================================================
(PID.TID 0000.0001) // Tile <-> Tile communication statistics
(PID.TID 0000.0001) // ======================================================
(PID.TID 0000.0001) // o Tile number: 000001
(PID.TID 0000.0001) //         No. X exchanges =              0
(PID.TID 0000.0001) //            Max. X spins =              0
(PID.TID 0000.0001) //            Min. X spins =     1000000000
(PID.TID 0000.0001) //          Total. X spins =              0
(PID.TID 0000.0001) //            Avg. X spins =       0.00E+00
(PID.TID 0000.0001) //         No. Y exchanges =              0
(PID.TID 0000.0001) //            Max. Y spins =              0
(PID.TID 0000.0001) //            Min. Y spins =     1000000000
(PID.TID 0000.0001) //          Total. Y spins =              0
(PID.TID 0000.0001) //            Avg. Y spins =       0.00E+00
(PID.TID 0000.0001) // o Tile number: 000002
(PID.TID 0000.0001) //         No. X exchanges =              0
(PID.TID 0000.0001) //            Max. X spins =              0
(PID.TID 0000.0001) //            Min. X spins =     1000000000
(PID.TID 0000.0001) //          Total. X spins =              0
(PID.TID 0000.0001) //            Avg. X spins =       0.00E+00
(PID.TID 0000.0001) //         No. Y exchanges =              0
(PID.TID 0000.0001) //            Max. Y spins =              0
(PID.TID 0000.0001) //            Min. Y spins =     1000000000
(PID.TID 0000.0001) //          Total. Y spins =              0
(PID.TID 0000.0001) //            Avg. Y spins =       0.00E+00
(PID.TID 0000.0001) // o Tile number: 000003
(PID.TID 0000.0001) //         No. X exchanges =              0
(PID.TID 0000.0001) //            Max. X spins =              0
(PID.TID 0000.0001) //            Min. X spins =     1000000000
(PID.TID 0000.0001) //          Total. X spins =              0
(PID.TID 0000.0001) //            Avg. X spins =       0.00E+00
(PID.TID 0000.0001) //         No. Y exchanges =              0
(PID.TID 0000.0001) //            Max. Y spins =              0
(PID.TID 0000.0001) //            Min. Y spins =     1000000000
(PID.TID 0000.0001) //          Total. Y spins =              0
(PID.TID 0000.0001) //            Avg. Y spins =       0.00E+00
(PID.TID 0000.0001) // o Tile number: 000004
(PID.TID 0000.0001) //         No. X exchanges =              0
(PID.TID 0000.0001) //            Max. X spins =              0
(PID.TID 0000.0001) //            Min. X spins =     1000000000
(PID.TID 0000.0001) //          Total. X spins =              0
(PID.TID 0000.0001) //            Avg. X spins =       0.00E+00
(PID.TID 0000.0001) //         No. Y exchanges =              0
(PID.TID 0000.0001) //            Max. Y spins =              0
(PID.TID 0000.0001) //            Min. Y spins =     1000000000
(PID.TID 0000.0001) //          Total. Y spins =              0
(PID.TID 0000.0001) //            Avg. Y spins =       0.00E+00
(PID.TID 0000.0001) // o Thread number: 000001
(PID.TID 0000.0001) //            No. barriers =           7972
(PID.TID 0000.0001) //      Max. barrier spins =              1
(PID.TID 0000.0001) //      Min. barrier spins =              1
(PID.TID 0000.0001) //     Total barrier spins =           7972
(PID.TID 0000.0001) //      Avg. barrier spins =       1.00E+00
PROGRAM MAIN: Execution ended Normally
