(PID.TID 0000.0001) 
(PID.TID 0000.0001) // ======================================================
(PID.TID 0000.0001) //                      MITgcm UV
(PID.TID 0000.0001) //                      =========
(PID.TID 0000.0001) // ======================================================
(PID.TID 0000.0001) // execution environment starting up...
(PID.TID 0000.0001) 
(PID.TID 0000.0001) // MITgcmUV version:  checkpoint58n_post
(PID.TID 0000.0001) // Build user:        jmc
(PID.TID 0000.0001) // Build host:        faulks
(PID.TID 0000.0001) // Build date:        Wed Aug 23 11:28:08 EDT 2006
(PID.TID 0000.0001) 
(PID.TID 0000.0001) // =======================================================
(PID.TID 0000.0001) // Execution Environment parameter file "eedata"
(PID.TID 0000.0001) // =======================================================
(PID.TID 0000.0001) ># Example "eedata" file
(PID.TID 0000.0001) ># Lines beginning "#" are comments
(PID.TID 0000.0001) ># nTx - No. threads per process in X
(PID.TID 0000.0001) ># nTy - No. threads per process in Y
(PID.TID 0000.0001) > &EEPARMS
(PID.TID 0000.0001) > nTx=1,
(PID.TID 0000.0001) > nTy=1,
(PID.TID 0000.0001) > &
(PID.TID 0000.0001) ># Note: Some systems use & as the
(PID.TID 0000.0001) ># namelist terminator. Other systems
(PID.TID 0000.0001) ># use a / character (as shown here).
(PID.TID 0000.0001) 
(PID.TID 0000.0001) // =======================================================
(PID.TID 0000.0001) // Computational Grid Specification ( see files "SIZE.h" )
(PID.TID 0000.0001) //                                  ( and "eedata"       )
(PID.TID 0000.0001) // =======================================================
(PID.TID 0000.0001)      nPx =    1 ; /* No. processes in X */
(PID.TID 0000.0001)      nPy =    1 ; /* No. processes in Y */
(PID.TID 0000.0001)      nSx =    1 ; /* No. tiles in X per process */
(PID.TID 0000.0001)      nSy =    4 ; /* No. tiles in Y per process */
(PID.TID 0000.0001)      sNx =    1 ; /* Tile size in X */
(PID.TID 0000.0001)      sNy =   14 ; /* Tile size in Y */
(PID.TID 0000.0001)      OLx =    3 ; /* Tile overlap distance in X */
(PID.TID 0000.0001)      OLy =    3 ; /* Tile overlap distance in Y */
(PID.TID 0000.0001)      nTx =    1 ; /* No. threads in X per process */
(PID.TID 0000.0001)      nTy =    1 ; /* No. threads in Y per process */
(PID.TID 0000.0001)       Nr =   15 ; /* No. levels in the vertical   */
(PID.TID 0000.0001)       nX =    1 ; /* Total domain size in X ( = nPx*nSx*sNx ) */
(PID.TID 0000.0001)       nY =   56 ; /* Total domain size in Y ( = nPy*nSy*sNy ) */
(PID.TID 0000.0001)   nTiles =    4 ; /* Total no. tiles per process ( = nSx*nSy ) */
(PID.TID 0000.0001)   nProcs =    1 ; /* Total no. processes ( = nPx*nPy ) */
(PID.TID 0000.0001) nThreads =    1 ; /* Total no. threads per process ( = nTx*nTy ) */
(PID.TID 0000.0001) usingMPI =    F ; /* Flag used to control whether MPI is in use */
(PID.TID 0000.0001)                   /*  note: To execute a program with MPI calls */
(PID.TID 0000.0001)                   /*  it must be launched appropriately e.g     */
(PID.TID 0000.0001)                   /*  "mpirun -np 64 ......"                    */
(PID.TID 0000.0001) useCoupler=   F ; /* Flag used to control communications with */
(PID.TID 0000.0001)                   /*  other model components, through a coupler */
(PID.TID 0000.0001) 
(PID.TID 0000.0001) // ======================================================
(PID.TID 0000.0001) // Mapping of tiles to threads
(PID.TID 0000.0001) // ======================================================
(PID.TID 0000.0001) // -o- Thread   1, tiles (   1:   1,   1:   4)
(PID.TID 0000.0001) 
(PID.TID 0000.0001) // ======================================================
(PID.TID 0000.0001) // Tile <-> Tile connectvity table
(PID.TID 0000.0001) // ======================================================
(PID.TID 0000.0001) // Tile number: 000001 (process no. = 000001)
(PID.TID 0000.0001) //        WEST: Tile = 000001, Process = 000001, Comm = put
(PID.TID 0000.0001) //                bi = 000001, bj = 000001
(PID.TID 0000.0001) //        EAST: Tile = 000001, Process = 000001, Comm = put
(PID.TID 0000.0001) //                bi = 000001, bj = 000001
(PID.TID 0000.0001) //       SOUTH: Tile = 000004, Process = 000001, Comm = put
(PID.TID 0000.0001) //                bi = 000001, bj = 000004
(PID.TID 0000.0001) //       NORTH: Tile = 000002, Process = 000001, Comm = put
(PID.TID 0000.0001) //                bi = 000001, bj = 000002
(PID.TID 0000.0001) // Tile number: 000002 (process no. = 000001)
(PID.TID 0000.0001) //        WEST: Tile = 000002, Process = 000001, Comm = put
(PID.TID 0000.0001) //                bi = 000001, bj = 000002
(PID.TID 0000.0001) //        EAST: Tile = 000002, Process = 000001, Comm = put
(PID.TID 0000.0001) //                bi = 000001, bj = 000002
(PID.TID 0000.0001) //       SOUTH: Tile = 000001, Process = 000001, Comm = put
(PID.TID 0000.0001) //                bi = 000001, bj = 000001
(PID.TID 0000.0001) //       NORTH: Tile = 000003, Process = 000001, Comm = put
(PID.TID 0000.0001) //                bi = 000001, bj = 000003
(PID.TID 0000.0001) // Tile number: 000003 (process no. = 000001)
(PID.TID 0000.0001) //        WEST: Tile = 000003, Process = 000001, Comm = put
(PID.TID 0000.0001) //                bi = 000001, bj = 000003
(PID.TID 0000.0001) //        EAST: Tile = 000003, Process = 000001, Comm = put
(PID.TID 0000.0001) //                bi = 000001, bj = 000003
(PID.TID 0000.0001) //       SOUTH: Tile = 000002, Process = 000001, Comm = put
(PID.TID 0000.0001) //                bi = 000001, bj = 000002
(PID.TID 0000.0001) //       NORTH: Tile = 000004, Process = 000001, Comm = put
(PID.TID 0000.0001) //                bi = 000001, bj = 000004
(PID.TID 0000.0001) // Tile number: 000004 (process no. = 000001)
(PID.TID 0000.0001) //        WEST: Tile = 000004, Process = 000001, Comm = put
(PID.TID 0000.0001) //                bi = 000001, bj = 000004
(PID.TID 0000.0001) //        EAST: Tile = 000004, Process = 000001, Comm = put
(PID.TID 0000.0001) //                bi = 000001, bj = 000004
(PID.TID 0000.0001) //       SOUTH: Tile = 000003, Process = 000001, Comm = put
(PID.TID 0000.0001) //                bi = 000001, bj = 000003
(PID.TID 0000.0001) //       NORTH: Tile = 000001, Process = 000001, Comm = put
(PID.TID 0000.0001) //                bi = 000001, bj = 000001
(PID.TID 0000.0001) 
(PID.TID 0000.0001) // =======================================================
(PID.TID 0000.0001) // Model parameter file "data"
(PID.TID 0000.0001) // =======================================================
(PID.TID 0000.0001) ># ====================
(PID.TID 0000.0001) ># | Model parameters |
(PID.TID 0000.0001) ># ====================
(PID.TID 0000.0001) >#
(PID.TID 0000.0001) ># Continuous equation parameters
(PID.TID 0000.0001) > &PARM01
(PID.TID 0000.0001) > tRef= 18.8, 16.3, 13.1, 10.4, 8.1, 6.0, 4.5,
(PID.TID 0000.0001) >      3.4, 2.7, 2.2, 1.8, 1.5, 1.2, 1.0, 0.9,
(PID.TID 0000.0001) > sRef= 15*34.7,
(PID.TID 0000.0001) > cosPower=1.,
(PID.TID 0000.0001) > viscAr=1.E-3,
(PID.TID 0000.0001) > viscAh=12.E5,
(PID.TID 0000.0001) > no_slip_sides=.FALSE.,
(PID.TID 0000.0001) > no_slip_bottom=.TRUE.,
(PID.TID 0000.0001) > bottomDragLinear=1.E-3,
(PID.TID 0000.0001) >#diffK4T=2.E12,
(PID.TID 0000.0001) > diffKhT=0.E3,
(PID.TID 0000.0001) > diffKrNrT=1.E-4, 14*1.E-5,
(PID.TID 0000.0001) > ivdc_kappa=100.,
(PID.TID 0000.0001) > implicitDiffusion=.TRUE.,
(PID.TID 0000.0001) > eosType='LINEAR',
(PID.TID 0000.0001) > tAlpha=2.E-4,
(PID.TID 0000.0001) > sBeta =0.E-4,
(PID.TID 0000.0001) > saltStepping=.FALSE.,
(PID.TID 0000.0001) > rotationPeriod=86400.,
(PID.TID 0000.0001) > gravity=9.81,
(PID.TID 0000.0001) > rhonil=1035.,
(PID.TID 0000.0001) > implicitFreeSurface=.TRUE.,
(PID.TID 0000.0001) > exactConserv=.TRUE.,
(PID.TID 0000.0001) > staggerTimeStep=.TRUE.,
(PID.TID 0000.0001) > useCDscheme=.TRUE.,
(PID.TID 0000.0001) > readBinaryPrec=64,
(PID.TID 0000.0001) > tempAdvScheme=77,
(PID.TID 0000.0001) > usePickupBeforeC54=.TRUE.,
(PID.TID 0000.0001) > &
(PID.TID 0000.0001) >
(PID.TID 0000.0001) ># Elliptic solver parameters
(PID.TID 0000.0001) > &PARM02
(PID.TID 0000.0001) > cg2dMaxIters=1000,
(PID.TID 0000.0001) >#cg2dTargetResidual=1.E-13,
(PID.TID 0000.0001) > cg2dTargetResWunit=1.E-17,
(PID.TID 0000.0001) > &
(PID.TID 0000.0001) >
(PID.TID 0000.0001) ># Time stepping parameters
(PID.TID 0000.0001) > &PARM03
(PID.TID 0000.0001) > niter0=36000,
(PID.TID 0000.0001) > nTimeSteps=20,
(PID.TID 0000.0001) >#endTime=3110400000.,
(PID.TID 0000.0001) > deltaTmom=1200.0,
(PID.TID 0000.0001) > deltaTfreesurf=3600.0,
(PID.TID 0000.0001) > deltaTtracer=86400.0,
(PID.TID 0000.0001) > deltaTClock =86400.0,
(PID.TID 0000.0001) > abEps=0.1,
(PID.TID 0000.0001) > tauCD=321428.,
(PID.TID 0000.0001) > tauThetaClimRelax=2592000.0,
(PID.TID 0000.0001) > chkptFreq=0.0,
(PID.TID 0000.0001) > pChkptFreq=3110400000.0,
(PID.TID 0000.0001) > taveFreq=1555200000.0,
(PID.TID 0000.0001) > dumpFreq=1555200000.0,
(PID.TID 0000.0001) > diagFreq=1555200000.0,
(PID.TID 0000.0001) >#monitorFreq=31104000.0,
(PID.TID 0000.0001) > monitorFreq=1.0,
(PID.TID 0000.0001) > &
(PID.TID 0000.0001) >
(PID.TID 0000.0001) ># Gridding parameters
(PID.TID 0000.0001) > &PARM04
(PID.TID 0000.0001) > usingCartesianGrid=.FALSE.,
(PID.TID 0000.0001) > usingSphericalPolarGrid=.TRUE.,
(PID.TID 0000.0001) > delRc= 20.,  60.,  85., 120., 165., 215., 265., 315.,
(PID.TID 0000.0001) >       365., 415., 465., 515., 565., 615., 665., 350.,
(PID.TID 0000.0001) > phiMin=-84.,
(PID.TID 0000.0001) > delY=56*3,
(PID.TID 0000.0001) > delX=1*3,
(PID.TID 0000.0001) > &
(PID.TID 0000.0001) >
(PID.TID 0000.0001) ># Input datasets
(PID.TID 0000.0001) > &PARM05
(PID.TID 0000.0001) > bathyFile='topo_sl.bin',
(PID.TID 0000.0001) > zonalWindFile='taux_sl.bin',
(PID.TID 0000.0001) > thetaClimFile='sst_sl.bin',
(PID.TID 0000.0001) > &
(PID.TID 0000.0001) 
(PID.TID 0000.0001) S/R INI_PARMS ; starts to read PARM01
(PID.TID 0000.0001) S/R INI_PARMS ; read PARM01 : OK
(PID.TID 0000.0001) S/R INI_PARMS ; starts to read PARM02
(PID.TID 0000.0001) S/R INI_PARMS ; read PARM02 : OK
(PID.TID 0000.0001) S/R INI_PARMS ; starts to read PARM03
(PID.TID 0000.0001) S/R INI_PARMS ; read PARM03 : OK
(PID.TID 0000.0001) S/R INI_PARMS ; starts to read PARM04
(PID.TID 0000.0001) S/R INI_PARMS ; read PARM04 : OK
(PID.TID 0000.0001) S/R INI_PARMS ; starts to read PARM05
(PID.TID 0000.0001) S/R INI_PARMS ; read PARM05 : OK
(PID.TID 0000.0001)  PACKAGES_BOOT: opening data.pkg
(PID.TID 0000.0001)  OPEN_COPY_DATA_FILE: opening file data.pkg
(PID.TID 0000.0001) // =======================================================
(PID.TID 0000.0001) // Parameter file "data.pkg"
(PID.TID 0000.0001) // =======================================================
(PID.TID 0000.0001) ># Packages
(PID.TID 0000.0001) > &PACKAGES
(PID.TID 0000.0001) > useGMRedi=.TRUE.,
(PID.TID 0000.0001) > useDiagnostics=.TRUE.,
(PID.TID 0000.0001) > useMNC=.TRUE.,
(PID.TID 0000.0001) > &
(PID.TID 0000.0001) >
(PID.TID 0000.0001) 
(PID.TID 0000.0001)  PACKAGES_BOOT: finished reading data.pkg
(PID.TID 0000.0001)  MNC_READPARMS: opening file 'data.mnc'
(PID.TID 0000.0001)  OPEN_COPY_DATA_FILE: opening file data.mnc
(PID.TID 0000.0001) // =======================================================
(PID.TID 0000.0001) // Parameter file "data.mnc"
(PID.TID 0000.0001) // =======================================================
(PID.TID 0000.0001) ># Example "data.mnc" file
(PID.TID 0000.0001) ># Lines beginning "#" are comments
(PID.TID 0000.0001) > &MNC_01
(PID.TID 0000.0001) ># mnc_echo_gvtypes=.FALSE.,
(PID.TID 0000.0001) ># mnc_use_indir=.FALSE.,
(PID.TID 0000.0001) > mnc_use_outdir=.TRUE.,
(PID.TID 0000.0001) > mnc_outdir_str='mnc_test_',
(PID.TID 0000.0001) >#mnc_outdir_date=.TRUE.,
(PID.TID 0000.0001) > monitor_mnc=.FALSE.,
(PID.TID 0000.0001) >#snapshot_mnc=.FALSE.,
(PID.TID 0000.0001) >#timeave_mnc=.FALSE.,
(PID.TID 0000.0001) > pickup_read_mnc=.FALSE.,
(PID.TID 0000.0001) > pickup_write_mnc=.FALSE.,
(PID.TID 0000.0001) > &
(PID.TID 0000.0001) ># Note: Some systems use & as the
(PID.TID 0000.0001) ># namelist terminator. Other systems
(PID.TID 0000.0001) ># use a / character (as shown here).
(PID.TID 0000.0001) 
(PID.TID 0000.0001)  MNC_READPARMS: finished reading data.mnc
(PID.TID 0000.0001)  GM_READPARMS: opening data.gmredi
(PID.TID 0000.0001)  OPEN_COPY_DATA_FILE: opening file data.gmredi
(PID.TID 0000.0001) // =======================================================
(PID.TID 0000.0001) // Parameter file "data.gmredi"
(PID.TID 0000.0001) // =======================================================
(PID.TID 0000.0001) ># from MOM
(PID.TID 0000.0001) ># GM_background_K: 	isopycnal diffusion coefficien
(PID.TID 0000.0001) ># GM_maxSlope:		max slope of isopycnals
(PID.TID 0000.0001) ># GM_Scrit:		transition for scaling diffusion coefficient
(PID.TID 0000.0001) ># GM_Sd:		half width scaling for diffusion coefficient
(PID.TID 0000.0001) ># real background diff:	horizontal diffusion
(PID.TID 0000.0001) >
(PID.TID 0000.0001) ># ifdef GM_VISBECK_VARIABLE_K, include following in GM_PARM01
(PID.TID 0000.0001) ># GM_Visbeck_alpha   = 0.,
(PID.TID 0000.0001) ># GM_Visbeck_length  = 2.e+5,
(PID.TID 0000.0001) ># GM_Visbeck_depth   = 1.e+3,
(PID.TID 0000.0001) ># GM_Visbeck_maxval_K= 2.5e+3,
(PID.TID 0000.0001) >
(PID.TID 0000.0001) > &GM_PARM01
(PID.TID 0000.0001) >  GM_AdvForm=.TRUE.,
(PID.TID 0000.0001) ># GM_AdvSeparate=.TRUE.,
(PID.TID 0000.0001) ># GM_background_K=1000.,
(PID.TID 0000.0001) >  GM_background_K=10.,
(PID.TID 0000.0001) ># GM_isopycK=1000.,
(PID.TID 0000.0001) ># GM_taper_scheme    = 'clipping',
(PID.TID 0000.0001) >  GM_taper_scheme    = 'linear',
(PID.TID 0000.0001) ># GM_taper_scheme    = 'gkw91',
(PID.TID 0000.0001) ># GM_taper_scheme    = 'ldd97',
(PID.TID 0000.0001) >  GM_maxSlope        = 1.e-2,
(PID.TID 0000.0001) >  GM_Scrit           = 4.e-3,
(PID.TID 0000.0001) >  GM_Sd              = 1.e-3,
(PID.TID 0000.0001) >  GM_Visbeck_alpha   = 1.e-2,
(PID.TID 0000.0001) >  GM_Visbeck_length  = 2.e+5,
(PID.TID 0000.0001) >  GM_Visbeck_depth   = 1.e+3,
(PID.TID 0000.0001) >  GM_Visbeck_maxval_K= 2.5e+3,
(PID.TID 0000.0001) > &
(PID.TID 0000.0001) >
(PID.TID 0000.0001) >
(PID.TID 0000.0001) 
(PID.TID 0000.0001)  GM_READPARMS: finished reading data.gmredi
(PID.TID 0000.0001)  DIAGNOSTICS_READPARMS: opening data.diagnostics
(PID.TID 0000.0001)  OPEN_COPY_DATA_FILE: opening file data.diagnostics
(PID.TID 0000.0001) // =======================================================
(PID.TID 0000.0001) // Parameter file "data.diagnostics"
(PID.TID 0000.0001) // =======================================================
(PID.TID 0000.0001) ># Diagnostic Package Choices
(PID.TID 0000.0001) >#-----------------
(PID.TID 0000.0001) ># for each output-stream:
(PID.TID 0000.0001) >#  filename(n) : prefix of the output file name (only 8.c long) for outp.stream n
(PID.TID 0000.0001) >#  frequency(n):< 0 : write snap-shot output every |frequency| seconds
(PID.TID 0000.0001) >#               > 0 : write time-average output every frequency seconds
(PID.TID 0000.0001) >#  timePhase(n)     : write at time = timePhase + multiple of |frequency|
(PID.TID 0000.0001) >#  levels(:,n) : list of levels to write to file (Notes: declared as REAL)
(PID.TID 0000.0001) >#                 when this entry is missing, select all common levels of this list
(PID.TID 0000.0001) >#  fields(:,n) : list of diagnostics fields (8.c) (see "available_diagnostics.log"
(PID.TID 0000.0001) >#                 file for the list of all available diag. in this particular config)
(PID.TID 0000.0001) >#-----------------
(PID.TID 0000.0001) > &diagnostics_list
(PID.TID 0000.0001) ># diag_mnc     = .FALSE.,
(PID.TID 0000.0001) >  frequency(1) = -864000.,
(PID.TID 0000.0001) >   filename(1) = 'surfDiag',
(PID.TID 0000.0001) >   levels(1,1) = 1.,
(PID.TID 0000.0001) >   fields(1,1) = 'ETAN    ','ETANSQ  ','DETADT2 ','PHIBOT  ','PHIBOTSQ',
(PID.TID 0000.0001) >                 'GM_VisbK',
(PID.TID 0000.0001) >   fileflags(1)= 'D       ',
(PID.TID 0000.0001) >  frequency(2) = 1728000.,
(PID.TID 0000.0001) >   filename(2) = 'dynDiag',
(PID.TID 0000.0001) ># do not specify levels => all levels are selected
(PID.TID 0000.0001) >   fields(1,2) = 'UVEL    ','VVEL    ','WVEL    ','PHIHYD  ',
(PID.TID 0000.0001) >                 'VVELMASS',
(PID.TID 0000.0001) >                 'THETA   ','VTHMASS ','WTHMASS ',
(PID.TID 0000.0001) >#                'SALT    ','USLTMASS','VSLTMASS','WSLTMASS',
(PID.TID 0000.0001) >                 'THETASQ ','UVELSQ  ',
(PID.TID 0000.0001) >                 'UV_VEL_Z','WU_VEL  ',
(PID.TID 0000.0001) >  frequency(3) = 864000.,
(PID.TID 0000.0001) >   filename(3) = 'oceDiag',
(PID.TID 0000.0001) >   levels(1,3) = 2., 3., 4., 5., 6., 7., 8., 9., 10., 11., 12., 13.,
(PID.TID 0000.0001) >   fields(1,3) = 'DRHODR  ','RHOAnoma',
(PID.TID 0000.0001) >                 'GM_PsiY ','GM_Kvy  ','GM_Kvz  ','GM_Kwy  ','GM_Kwz  ',
(PID.TID 0000.0001) >  frequency(4) = 1728000.,
(PID.TID 0000.0001) >   filename(4) = 'flxDiag',
(PID.TID 0000.0001) >   fields(1,4) = 'ADVy_TH ','ADVr_TH ',
(PID.TID 0000.0001) >                 'DFyE_TH ','DFrE_TH ',
(PID.TID 0000.0001) >                 'DFrI_TH ',
(PID.TID 0000.0001) >#                'ADVx_SLT',
(PID.TID 0000.0001) > &
(PID.TID 0000.0001) >
(PID.TID 0000.0001) ># Parameter for Diagnostics of per level statistics:
(PID.TID 0000.0001) >#-----------------
(PID.TID 0000.0001) ># for each output-stream:
(PID.TID 0000.0001) >#  stat_fname(n) : prefix of the output file name (only 8.c long) for outp.stream n
(PID.TID 0000.0001) >#  stat_freq(n):< 0 : write snap-shot output every |stat_freq| seconds
(PID.TID 0000.0001) >#               > 0 : write time-average output every stat_freq seconds
(PID.TID 0000.0001) >#  stat_phase(n)    : write at time = stat_phase + multiple of |stat_freq|
(PID.TID 0000.0001) >#  stat_region(:,n) : list of "regions" (default: 1 region only=global)
(PID.TID 0000.0001) >#  stat_fields(:,n) : list of diagnostics fields (8.c) (see "available_diagnostics.log"
(PID.TID 0000.0001) >#                 file for the list of all available diag. in this particular config)
(PID.TID 0000.0001) >#-----------------
(PID.TID 0000.0001) > &DIAG_STATIS_PARMS
(PID.TID 0000.0001) ># an example just to check the agreement with MONITOR output:
(PID.TID 0000.0001) > stat_fields(1,1)= 'ETAN    ','UVEL    ','VVEL    ','WVEL    ', 'THETA   ',
(PID.TID 0000.0001) >    stat_fname(1)= 'dynStDiag',
(PID.TID 0000.0001) >     stat_freq(1)= -864000.,
(PID.TID 0000.0001) >    stat_phase(1)= 0.,
(PID.TID 0000.0001) > &
(PID.TID 0000.0001) >
(PID.TID 0000.0001) 
(PID.TID 0000.0001) S/R DIAGNOSTICS_READPARMS, read namelist "diagnostics_list": start
(PID.TID 0000.0001) S/R DIAGNOSTICS_READPARMS, read namelist "diagnostics_list": OK
(PID.TID 0000.0001) S/R DIAGNOSTICS_READPARMS, read namelist "DIAG_STATIS_PARMS": start
(PID.TID 0000.0001) S/R DIAGNOSTICS_READPARMS, read namelist "DIAG_STATIS_PARMS": OK
(PID.TID 0000.0001) -----------------------------------------------------
(PID.TID 0000.0001)  DIAGNOSTICS_READPARMS: active diagnostics summary:
(PID.TID 0000.0001) -----------------------------------------------------
(PID.TID 0000.0001) Creating Output Stream: surfDiag
(PID.TID 0000.0001) Output Frequency:   -864000.000000 ; Phase:     432000.000000
(PID.TID 0000.0001)  Averaging Freq.:         0.000000 , Phase:          0.000000 , Cycle:  1
(PID.TID 0000.0001)  Levels:       1.
(PID.TID 0000.0001)  Fields:    ETAN     ETANSQ   DETADT2  PHIBOT   PHIBOTSQ GM_VisbK
(PID.TID 0000.0001) Creating Output Stream: dynDiag
(PID.TID 0000.0001) Output Frequency:   1728000.000000 ; Phase:          0.000000
(PID.TID 0000.0001)  Averaging Freq.:   1728000.000000 , Phase:          0.000000 , Cycle:  1
(PID.TID 0000.0001)  Levels:    will be set later
(PID.TID 0000.0001)  Fields:    UVEL     VVEL     WVEL     PHIHYD   VVELMASS THETA    VTHMASS  WTHMASS  THETASQ  UVELSQ
(PID.TID 0000.0001)  Fields:    UV_VEL_Z WU_VEL
(PID.TID 0000.0001) Creating Output Stream: oceDiag
(PID.TID 0000.0001) Output Frequency:    864000.000000 ; Phase:          0.000000
(PID.TID 0000.0001)  Averaging Freq.:    864000.000000 , Phase:          0.000000 , Cycle:  1
(PID.TID 0000.0001)  Levels:       2.   3.   4.   5.   6.   7.   8.   9.  10.  11.  12.  13.
(PID.TID 0000.0001)  Fields:    DRHODR   RHOAnoma GM_PsiY  GM_Kvy   GM_Kvz   GM_Kwy   GM_Kwz
(PID.TID 0000.0001) Creating Output Stream: flxDiag
(PID.TID 0000.0001) Output Frequency:   1728000.000000 ; Phase:          0.000000
(PID.TID 0000.0001)  Averaging Freq.:   1728000.000000 , Phase:          0.000000 , Cycle:  1
(PID.TID 0000.0001)  Levels:    will be set later
(PID.TID 0000.0001)  Fields:    ADVy_TH  ADVr_TH  DFyE_TH  DFrE_TH  DFrI_TH
(PID.TID 0000.0001) -----------------------------------------------------
(PID.TID 0000.0001)  DIAGNOSTICS_READPARMS: statistics diags. summary:
(PID.TID 0000.0001) Creating Stats. Output Stream: dynStDiag
(PID.TID 0000.0001) Output Frequency:   -864000.000000 ; Phase:          0.000000
(PID.TID 0000.0001)  Regions :    0
(PID.TID 0000.0001)  Fields:    ETAN     UVEL     VVEL     WVEL     THETA
(PID.TID 0000.0001) -----------------------------------------------------
(PID.TID 0000.0001) 
(PID.TID 0000.0001) SET_PARMS: done
(PID.TID 0000.0001) Enter INI_VERTICAL_GRID: setInterFDr=    F ; setCenterDr=    T
(PID.TID 0000.0001) %MON XC_max                       =   1.5000000000000E+00
(PID.TID 0000.0001) %MON XC_min                       =   1.5000000000000E+00
(PID.TID 0000.0001) %MON XC_mean                      =   1.5000000000000E+00
(PID.TID 0000.0001) %MON XC_sd                        =   0.0000000000000E+00
(PID.TID 0000.0001) %MON XG_max                       =   0.0000000000000E+00
(PID.TID 0000.0001) %MON XG_min                       =   0.0000000000000E+00
(PID.TID 0000.0001) %MON XG_mean                      =   0.0000000000000E+00
(PID.TID 0000.0001) %MON XG_sd                        =   0.0000000000000E+00
(PID.TID 0000.0001) %MON DXC_max                      =   3.3341812682592E+05
(PID.TID 0000.0001) %MON DXC_min                      =   4.3534716771864E+04
(PID.TID 0000.0001) %MON DXC_mean                     =   2.2627957857351E+05
(PID.TID 0000.0001) %MON DXC_sd                       =   9.1462046601761E+04
(PID.TID 0000.0001) %MON DXF_max                      =   3.3341812682592E+05
(PID.TID 0000.0001) %MON DXF_min                      =   4.3534716771864E+04
(PID.TID 0000.0001) %MON DXF_mean                     =   2.2627957857351E+05
(PID.TID 0000.0001) %MON DXF_sd                       =   9.1462046601761E+04
(PID.TID 0000.0001) %MON DXG_max                      =   3.3353242005612E+05
(PID.TID 0000.0001) %MON DXG_min                      =   3.4863631318407E+04
(PID.TID 0000.0001) %MON DXG_mean                     =   2.2620203821339E+05
(PID.TID 0000.0001) %MON DXG_sd                       =   9.1624145029333E+04
(PID.TID 0000.0001) %MON DXV_max                      =   3.3353242005612E+05
(PID.TID 0000.0001) %MON DXV_min                      =   3.4863631318407E+04
(PID.TID 0000.0001) %MON DXV_mean                     =   2.2620203821339E+05
(PID.TID 0000.0001) %MON DXV_sd                       =   9.1624145029333E+04
(PID.TID 0000.0001) %MON YC_max                       =   8.2500000000000E+01
(PID.TID 0000.0001) %MON YC_min                       =  -8.2500000000000E+01
(PID.TID 0000.0001) %MON YC_mean                      =   0.0000000000000E+00
(PID.TID 0000.0001) %MON YC_sd                        =   4.8489689625734E+01
(PID.TID 0000.0001) %MON YG_max                       =   8.1000000000000E+01
(PID.TID 0000.0001) %MON YG_min                       =  -8.4000000000000E+01
(PID.TID 0000.0001) %MON YG_mean                      =  -1.5272727272727E+00
(PID.TID 0000.0001) %MON YG_sd                        =   4.8928093638598E+01
(PID.TID 0000.0001) %MON DYC_max                      =   3.3353242005612E+05
(PID.TID 0000.0001) %MON DYC_min                      =   3.3353242005612E+05
(PID.TID 0000.0001) %MON DYC_mean                     =   3.3353242005612E+05
(PID.TID 0000.0001) %MON DYC_sd                       =   0.0000000000000E+00
(PID.TID 0000.0001) %MON DYF_max                      =   3.3353242005612E+05
(PID.TID 0000.0001) %MON DYF_min                      =   3.3353242005612E+05
(PID.TID 0000.0001) %MON DYF_mean                     =   3.3353242005612E+05
(PID.TID 0000.0001) %MON DYF_sd                       =   0.0000000000000E+00
(PID.TID 0000.0001) %MON DYG_max                      =   3.3353242005612E+05
(PID.TID 0000.0001) %MON DYG_min                      =   3.3353242005612E+05
(PID.TID 0000.0001) %MON DYG_mean                     =   3.3353242005612E+05
(PID.TID 0000.0001) %MON DYG_sd                       =   0.0000000000000E+00
(PID.TID 0000.0001) %MON DYU_max                      =   3.3353242005612E+05
(PID.TID 0000.0001) %MON DYU_min                      =   3.3353242005612E+05
(PID.TID 0000.0001) %MON DYU_mean                     =   3.3353242005612E+05
(PID.TID 0000.0001) %MON DYU_sd                       =   0.0000000000000E+00
(PID.TID 0000.0001) %MON RA_max                       =   1.1119305196237E+11
(PID.TID 0000.0001) %MON RA_min                       =   1.4518580829015E+10
(PID.TID 0000.0001) %MON RA_mean                      =   7.5462954512622E+10
(PID.TID 0000.0001) %MON RA_sd                        =   3.0502073169179E+10
(PID.TID 0000.0001) %MON RAW_max                      =   1.1119305196237E+11
(PID.TID 0000.0001) %MON RAW_min                      =   1.4518580829015E+10
(PID.TID 0000.0001) %MON RAW_mean                     =   7.5462954512622E+10
(PID.TID 0000.0001) %MON RAW_sd                       =   3.0502073169179E+10
(PID.TID 0000.0001) %MON RAS_max                      =   1.1123116810562E+11
(PID.TID 0000.0001) %MON RAS_min                      =   1.1626823069547E+10
(PID.TID 0000.0001) %MON RAS_mean                     =   7.5437095242840E+10
(PID.TID 0000.0001) %MON RAS_sd                       =   3.0556132074289E+10
(PID.TID 0000.0001) %MON RAZ_max                      =   1.1123116810562E+11
(PID.TID 0000.0001) %MON RAZ_min                      =   1.1626823069547E+10
(PID.TID 0000.0001) %MON RAZ_mean                     =   7.5437095242840E+10
(PID.TID 0000.0001) %MON RAZ_sd                       =   3.0556132074289E+10
(PID.TID 0000.0001) %MON AngleCS_max                  =   1.0000000000000E+00
(PID.TID 0000.0001) %MON AngleCS_min                  =   1.0000000000000E+00
(PID.TID 0000.0001) %MON AngleCS_mean                 =   1.0000000000000E+00
(PID.TID 0000.0001) %MON AngleCS_sd                   =   0.0000000000000E+00
(PID.TID 0000.0001) %MON AngleSN_max                  =   0.0000000000000E+00
(PID.TID 0000.0001) %MON AngleSN_min                  =   0.0000000000000E+00
(PID.TID 0000.0001) %MON AngleSN_mean                 =   0.0000000000000E+00
(PID.TID 0000.0001) %MON AngleSN_sd                   =   0.0000000000000E+00
(PID.TID 0000.0001)  MDSREADFIELD: opening global file: topo_sl.bin
(PID.TID 0000.0001) // =======================================================
(PID.TID 0000.0001) // Field Model R_low (ini_masks_etc) at iteration          1
(PID.TID 0000.0001) // CMIN =         -5.200000000000000E+03
(PID.TID 0000.0001) // CMAX =         -5.200000000000000E+03
(PID.TID 0000.0001) // CINT =          0.000000000000000E+00
(PID.TID 0000.0001) // SYMBOLS (CMIN->CMAX): -abcdefghijklmnopqrstuvwxyz+
(PID.TID 0000.0001) //                  0.0: .
(PID.TID 0000.0001) // RANGE I (Lo:Hi:Step):(  -2:   4:   1)
(PID.TID 0000.0001) // RANGE J (Lo:Hi:Step):(  59:  -2:  -1)
(PID.TID 0000.0001) // RANGE K (Lo:Hi:Step):(   1:   1:   1)
(PID.TID 0000.0001) // =======================================================
(PID.TID 0000.0001) // =======================================================
(PID.TID 0000.0001) // END OF FIELD                                          =
(PID.TID 0000.0001) // =======================================================
(PID.TID 0000.0001) 
(PID.TID 0000.0001) // =======================================================
(PID.TID 0000.0001) // Field Model Ro_surf (ini_masks_etc) at iteration          1
(PID.TID 0000.0001) // CMIN =          1.000000000000000E+32
(PID.TID 0000.0001) // CMAX =         -1.000000000000000E+32
(PID.TID 0000.0001) // CINT =          0.000000000000000E+00
(PID.TID 0000.0001) // SYMBOLS (CMIN->CMAX): -abcdefghijklmnopqrstuvwxyz+
(PID.TID 0000.0001) //                  0.0: .
(PID.TID 0000.0001) // RANGE I (Lo:Hi:Step):(  -2:   4:   1)
(PID.TID 0000.0001) // RANGE J (Lo:Hi:Step):(  59:  -2:  -1)
(PID.TID 0000.0001) // RANGE K (Lo:Hi:Step):(   1:   1:   1)
(PID.TID 0000.0001) // =======================================================
(PID.TID 0000.0001) // =======================================================
(PID.TID 0000.0001) // END OF FIELD                                          =
(PID.TID 0000.0001) // =======================================================
(PID.TID 0000.0001) 
(PID.TID 0000.0001) // =======================================================
(PID.TID 0000.0001) // Field hFacC at iteration          1
(PID.TID 0000.0001) // CMIN =          1.000000000000000E+00
(PID.TID 0000.0001) // CMAX =          1.000000000000000E+00
(PID.TID 0000.0001) // CINT =          0.000000000000000E+00
(PID.TID 0000.0001) // SYMBOLS (CMIN->CMAX): -abcdefghijklmnopqrstuvwxyz+
(PID.TID 0000.0001) //                  0.0: .
(PID.TID 0000.0001) // RANGE I (Lo:Hi:Step):(  -2:   4:   1)
(PID.TID 0000.0001) // RANGE J (Lo:Hi:Step):(  59:  -2:  -1)
(PID.TID 0000.0001) // RANGE K (Lo:Hi:Step):(   1:   1:   1)
(PID.TID 0000.0001) // =======================================================
(PID.TID 0000.0001) // =======================================================
(PID.TID 0000.0001) // END OF FIELD                                          =
(PID.TID 0000.0001) // =======================================================
(PID.TID 0000.0001) 
(PID.TID 0000.0001) // =======================================================
(PID.TID 0000.0001) // Field hFacW at iteration          1
(PID.TID 0000.0001) // CMIN =          1.000000000000000E+00
(PID.TID 0000.0001) // CMAX =          1.000000000000000E+00
(PID.TID 0000.0001) // CINT =          0.000000000000000E+00
(PID.TID 0000.0001) // SYMBOLS (CMIN->CMAX): -abcdefghijklmnopqrstuvwxyz+
(PID.TID 0000.0001) //                  0.0: .
(PID.TID 0000.0001) // RANGE I (Lo:Hi:Step):(  -2:   4:   1)
(PID.TID 0000.0001) // RANGE J (Lo:Hi:Step):(  59:  -2:  -1)
(PID.TID 0000.0001) // RANGE K (Lo:Hi:Step):(   1:   1:   1)
(PID.TID 0000.0001) // =======================================================
(PID.TID 0000.0001) // =======================================================
(PID.TID 0000.0001) // END OF FIELD                                          =
(PID.TID 0000.0001) // =======================================================
(PID.TID 0000.0001) 
(PID.TID 0000.0001) // =======================================================
(PID.TID 0000.0001) // Field hFacS at iteration          1
(PID.TID 0000.0001) // CMIN =          1.000000000000000E+00
(PID.TID 0000.0001) // CMAX =          1.000000000000000E+00
(PID.TID 0000.0001) // CINT =          0.000000000000000E+00
(PID.TID 0000.0001) // SYMBOLS (CMIN->CMAX): -abcdefghijklmnopqrstuvwxyz+
(PID.TID 0000.0001) //                  0.0: .
(PID.TID 0000.0001) // RANGE I (Lo:Hi:Step):(  -2:   4:   1)
(PID.TID 0000.0001) // RANGE J (Lo:Hi:Step):(  59:  -2:  -1)
(PID.TID 0000.0001) // RANGE K (Lo:Hi:Step):(   1:   1:   1)
(PID.TID 0000.0001) // =======================================================
(PID.TID 0000.0001) // =======================================================
(PID.TID 0000.0001) // END OF FIELD                                          =
(PID.TID 0000.0001) // =======================================================
(PID.TID 0000.0001) 
(PID.TID 0000.0001) 
(PID.TID 0000.0001) // ===================================
(PID.TID 0000.0001) // GAD parameters :
(PID.TID 0000.0001) // ===================================
(PID.TID 0000.0001) tempAdvScheme =   /* Temp. Horiz.Advection scheme selector */
(PID.TID 0000.0001)                      77
(PID.TID 0000.0001)     ;
(PID.TID 0000.0001) tempVertAdvScheme =   /* Temp. Vert. Advection scheme selector */
(PID.TID 0000.0001)                      77
(PID.TID 0000.0001)     ;
(PID.TID 0000.0001) tempMultiDimAdvec =   /* use Muti-Dim Advec method for Temp */
(PID.TID 0000.0001)                   T
(PID.TID 0000.0001)     ;
(PID.TID 0000.0001) AdamsBashforthGt =   /* apply Adams-Bashforth extrapolation on Gt */
(PID.TID 0000.0001)                   F
(PID.TID 0000.0001)     ;
(PID.TID 0000.0001) AdamsBashforth_T =   /* apply Adams-Bashforth extrapolation on Temp */
(PID.TID 0000.0001)                   F
(PID.TID 0000.0001)     ;
(PID.TID 0000.0001) saltAdvScheme =   /* Salt. Horiz.advection scheme selector */
(PID.TID 0000.0001)                       2
(PID.TID 0000.0001)     ;
(PID.TID 0000.0001) saltVertAdvScheme =   /* Salt. Vert. Advection scheme selector */
(PID.TID 0000.0001)                       2
(PID.TID 0000.0001)     ;
(PID.TID 0000.0001) saltMultiDimAdvec =   /* use Muti-Dim Advec method for Salt */
(PID.TID 0000.0001)                   F
(PID.TID 0000.0001)     ;
(PID.TID 0000.0001) AdamsBashforthGs =   /* apply Adams-Bashforth extrapolation on Gs */
(PID.TID 0000.0001)                   F
(PID.TID 0000.0001)     ;
(PID.TID 0000.0001) AdamsBashforth_S =   /* apply Adams-Bashforth extrapolation on Salt */
(PID.TID 0000.0001)                   F
(PID.TID 0000.0001)     ;
(PID.TID 0000.0001) // ===================================
(PID.TID 0000.0001) ------------------------------------------------------------
(PID.TID 0000.0001) DIAGNOSTICS_SET_LEVELS: done
(PID.TID 0000.0001)  Total Nb of available Diagnostics: ndiagt= 179
(PID.TID 0000.0001)  write list of available Diagnostics to file: available_diagnostics.log
(PID.TID 0000.0001) SETDIAG: Allocate  1 x  1 Levels for Diagnostic #  23 ETAN
(PID.TID 0000.0001) SETDIAG: Allocate  1 x  1 Levels for Diagnostic #  24 ETANSQ
(PID.TID 0000.0001) SETDIAG: Allocate  1 x  1 Levels for Diagnostic #  25 DETADT2
(PID.TID 0000.0001) SETDIAG: Allocate  1 x  1 Levels for Diagnostic #  67 PHIBOT
(PID.TID 0000.0001) SETDIAG: Allocate  1 x  1 Levels for Diagnostic #  68 PHIBOTSQ
(PID.TID 0000.0001) SETDIAG: Allocate  1 x  1 Levels for Diagnostic # 168 GM_VisbK
(PID.TID 0000.0001) SETDIAG: Allocate 15 x  1 Levels for Diagnostic #  30 UVEL
(PID.TID 0000.0001) SETDIAG: Allocate 15 x  1 Levels for Diagnostic #  31 VVEL
(PID.TID 0000.0001) SETDIAG: Allocate 15 x  1 Levels for Diagnostic #  32 WVEL
(PID.TID 0000.0001) SETDIAG: Allocate 15 x  1 Levels for Diagnostic #  65 PHIHYD
(PID.TID 0000.0001) SETDIAG: Allocate 15 x  1 Levels for Diagnostic #  44 VVELMASS
(PID.TID 0000.0001) SETDIAG: Allocate 15 x  1 Levels for Diagnostic #  26 THETA
(PID.TID 0000.0001) SETDIAG: Allocate 15 x  1 Levels for Diagnostic #  47 VTHMASS
(PID.TID 0000.0001) SETDIAG: Allocate 15 x  1 Levels for Diagnostic #  48 WTHMASS
(PID.TID 0000.0001) SETDIAG: Allocate 15 x  1 Levels for Diagnostic #  33 THETASQ
(PID.TID 0000.0001) SETDIAG: Allocate 15 x  1 Levels for Diagnostic #  36 UVELSQ
(PID.TID 0000.0001) SETDIAG: Allocate 15 x  1 Levels for Diagnostic #  40 UV_VEL_Z
(PID.TID 0000.0001) SETDIAG: Allocate 15 x  1 Levels for Diagnostic #  41 WU_VEL
(PID.TID 0000.0001) SETDIAG: Allocate 15 x  1 Levels for Diagnostic #  69 DRHODR
(PID.TID 0000.0001) SETDIAG: Allocate 15 x  1 Levels for Diagnostic #  60 RHOAnoma
(PID.TID 0000.0001) SETDIAG: Allocate 15 x  1 Levels for Diagnostic # 177 GM_PsiY
(PID.TID 0000.0001) SETDIAG: Allocate 15 x  1 Levels for Diagnostic # 170 GM_Kvy
(PID.TID 0000.0001) SETDIAG: Allocate 15 x  1 Levels for Diagnostic # 172 GM_Kvz
(PID.TID 0000.0001) SETDIAG: Allocate 15 x  1 Levels for Diagnostic # 174 GM_Kwy
(PID.TID 0000.0001) SETDIAG: Allocate 15 x  1 Levels for Diagnostic # 175 GM_Kwz
(PID.TID 0000.0001) SETDIAG: Allocate 15 x  1 Levels for Diagnostic #  94 ADVy_TH
(PID.TID 0000.0001) SETDIAG: Allocate 15 x  1 Levels for Diagnostic #  92 ADVr_TH
(PID.TID 0000.0001) SETDIAG: Allocate 15 x  1 Levels for Diagnostic #  97 DFyE_TH
(PID.TID 0000.0001) SETDIAG: Allocate 15 x  1 Levels for Diagnostic #  95 DFrE_TH
(PID.TID 0000.0001) SETDIAG: Allocate 15 x  1 Levels for Diagnostic #  98 DFrI_TH
(PID.TID 0000.0001)   space allocated for all diagnostics:   366 levels
(PID.TID 0000.0001)   set mate pointer for diag #  30  UVEL     , Parms: UU   031MR
(PID.TID 0000.0001)   set mate pointer for diag #  31  VVEL     , Parms: VV   030MR
(PID.TID 0000.0001)   set mate pointer for diag #  40  UV_VEL_Z , Parms: UZ   040MR
(PID.TID 0000.0001) DIAGNOSTICS_SET_POINTERS: Set levels for Outp.Stream: dynDiag
(PID.TID 0000.0001)  Levels:       1.   2.   3.   4.   5.   6.   7.   8.   9.  10.  11.  12.  13.  14.  15.
(PID.TID 0000.0001) DIAGNOSTICS_SET_POINTERS: Set levels for Outp.Stream: flxDiag
(PID.TID 0000.0001)  Levels:       1.   2.   3.   4.   5.   6.   7.   8.   9.  10.  11.  12.  13.  14.  15.
(PID.TID 0000.0001) DIAGNOSTICS_SET_POINTERS: done
(PID.TID 0000.0001) ------------------------------------------------------------
(PID.TID 0000.0001) DIAGSTATS_SET_REGIONS: define no region
(PID.TID 0000.0001) ------------------------------------------------------------
(PID.TID 0000.0001) SETDIAG: Allocate  1 Levels for Stats-Diag #  23 ETAN
(PID.TID 0000.0001) SETDIAG: Allocate 15 Levels for Stats-Diag #  30 UVEL
(PID.TID 0000.0001) SETDIAG: Allocate 15 Levels for Stats-Diag #  31 VVEL
(PID.TID 0000.0001) SETDIAG: Allocate 15 Levels for Stats-Diag #  32 WVEL
(PID.TID 0000.0001) SETDIAG: Allocate 15 Levels for Stats-Diag #  26 THETA
(PID.TID 0000.0001)   space allocated for all stats-diags:    61 levels
(PID.TID 0000.0001) DIAGSTATS_SET_POINTERS: done
(PID.TID 0000.0001) ------------------------------------------------------------
(PID.TID 0000.0001) GMREDI_CHECK: #define GMREDI
(PID.TID 0000.0001) GM_AdvForm =  /* if FALSE => use SkewFlux Form */
(PID.TID 0000.0001)                   T
(PID.TID 0000.0001)     ;
(PID.TID 0000.0001) GM_AdvSeparate = /* Calc Bolus & Euler Adv. separately */
(PID.TID 0000.0001)                   F
(PID.TID 0000.0001)     ;
(PID.TID 0000.0001) GM_ExtraDiag =  /* Tensor Extra Diag (line 1&2) non 0 */
(PID.TID 0000.0001)                   T
(PID.TID 0000.0001)     ;
(PID.TID 0000.0001) GM_isopycK =   /* Background Isopyc. Diffusivity ( m^2/s ) */
(PID.TID 0000.0001)                 1.000000000000000E+01
(PID.TID 0000.0001)     ;
(PID.TID 0000.0001)  GM_skewflx*K =   /* Background GM_SkewFlx Diffusivity ( m^2/s ) */
(PID.TID 0000.0001)                 0.000000000000000E+00
(PID.TID 0000.0001)     ;
(PID.TID 0000.0001)  GM_advec*K =   /* Backg. GM-Advec(=Bolus) Diffusivity ( m^2/s ) */
(PID.TID 0000.0001)                 1.000000000000000E+01
(PID.TID 0000.0001)     ;
(PID.TID 0000.0001)  GM_Visbeck_alpha =   /* Visbeck alpha coeff. ( ) */
(PID.TID 0000.0001)                 1.000000000000000E-02
(PID.TID 0000.0001)     ;
(PID.TID 0000.0001)  Tapering/Cliping : linear
(PID.TID 0000.0001)  GM_Small_Number =  /* epsilon used in slope calc */
(PID.TID 0000.0001)                 1.000000000000000E-12
(PID.TID 0000.0001)     ;
(PID.TID 0000.0001)  GM_slopeSqCutoff =  /* Slope^2 cut-off value */
(PID.TID 0000.0001)                 1.000000000000000E+48
(PID.TID 0000.0001)     ;
(PID.TID 0000.0001) %MON fCori_max                    =   1.4419980985793E-04
(PID.TID 0000.0001) %MON fCori_min                    =  -1.4419980985793E-04
(PID.TID 0000.0001) %MON fCori_mean                   =   7.7443012320393E-21
(PID.TID 0000.0001) %MON fCori_sd                     =   9.9129524406610E-05
(PID.TID 0000.0001) %MON fCoriG_max                   =   1.4365344605787E-04
(PID.TID 0000.0001) %MON fCoriG_min                   =  -1.4464734631126E-04
(PID.TID 0000.0001) %MON fCoriG_mean                  =  -2.6299517511138E-06
(PID.TID 0000.0001) %MON fCoriG_sd                    =   9.9997297738060E-05
(PID.TID 0000.0001) %MON fCoriCos_max                 =   1.4539426427085E-04
(PID.TID 0000.0001) %MON fCoriCos_min                 =   1.8984265119424E-05
(PID.TID 0000.0001) %MON fCoriCos_mean                =   9.8674157759248E-05
(PID.TID 0000.0001) %MON fCoriCos_sd                  =   3.9884025205722E-05
(PID.TID 0000.0001) INI_CG2D: CG2D normalisation factor =  3.5045293363874508E-05
(PID.TID 0000.0001) INI_CG2D: cg2dTolerance = 1.225676511460127E-12 (Area=4.1968882910E+12)
(PID.TID 0000.0001) 
(PID.TID 0000.0001) CONFIG_CHECK: OK
(PID.TID 0000.0001) // =======================================================
(PID.TID 0000.0001) // Model configuration
(PID.TID 0000.0001) // =======================================================
(PID.TID 0000.0001) //
(PID.TID 0000.0001) // "Physical" paramters ( PARM01 in namelist )
(PID.TID 0000.0001) //
(PID.TID 0000.0001) buoyancyRelation = OCEANIC
(PID.TID 0000.0001) fluidIsAir  =  /* fluid major constituent is Air */
(PID.TID 0000.0001)                   F
(PID.TID 0000.0001)     ;
(PID.TID 0000.0001) fluidIsWater=  /* fluid major constituent is Water */
(PID.TID 0000.0001)                   T
(PID.TID 0000.0001)     ;
(PID.TID 0000.0001) usingPCoords =  /* use p (or p*) vertical coordinate */
(PID.TID 0000.0001)                   F
(PID.TID 0000.0001)     ;
(PID.TID 0000.0001) usingZCoords =  /* use z (or z*) vertical coordinate */
(PID.TID 0000.0001)                   T
(PID.TID 0000.0001)     ;
(PID.TID 0000.0001) tRef =   /* Reference temperature profile ( oC or K ) */
(PID.TID 0000.0001)                 1.880000000000000E+01,      /* K =  1 */
(PID.TID 0000.0001)                 1.630000000000000E+01,      /* K =  2 */
(PID.TID 0000.0001)                 1.310000000000000E+01,      /* K =  3 */
(PID.TID 0000.0001)                 1.040000000000000E+01,      /* K =  4 */
(PID.TID 0000.0001)                 8.100000000000000E+00,      /* K =  5 */
(PID.TID 0000.0001)                 6.000000000000000E+00,      /* K =  6 */
(PID.TID 0000.0001)                 4.500000000000000E+00,      /* K =  7 */
(PID.TID 0000.0001)                 3.400000000000000E+00,      /* K =  8 */
(PID.TID 0000.0001)                 2.700000000000000E+00,      /* K =  9 */
(PID.TID 0000.0001)                 2.200000000000000E+00,      /* K = 10 */
(PID.TID 0000.0001)                 1.800000000000000E+00,      /* K = 11 */
(PID.TID 0000.0001)                 1.500000000000000E+00,      /* K = 12 */
(PID.TID 0000.0001)                 1.200000000000000E+00,      /* K = 13 */
(PID.TID 0000.0001)                 1.000000000000000E+00,      /* K = 14 */
(PID.TID 0000.0001)                 9.000000000000000E-01       /* K = 15 */
(PID.TID 0000.0001)     ;
(PID.TID 0000.0001) sRef =   /* Reference salinity profile ( psu ) */
(PID.TID 0000.0001)    15 @  3.470000000000000E+01              /* K =  1: 15 */
(PID.TID 0000.0001)     ;
(PID.TID 0000.0001) viscAh =   /* Lateral eddy viscosity ( m^2/s ) */
(PID.TID 0000.0001)                 1.200000000000000E+06
(PID.TID 0000.0001)     ;
(PID.TID 0000.0001) viscAhMax =   /* Maximum lateral eddy viscosity ( m^2/s ) */
(PID.TID 0000.0001)                 1.000000000000000E+21
(PID.TID 0000.0001)     ;
(PID.TID 0000.0001) viscAhGrid =   /* Grid dependent lateral eddy viscosity ( non-dim. ) */
(PID.TID 0000.0001)                 0.000000000000000E+00
(PID.TID 0000.0001)     ;
(PID.TID 0000.0001) useFullLeith =   /* Use Full Form of Leith Viscosity on/off flag*/
(PID.TID 0000.0001)                   F
(PID.TID 0000.0001)     ;
(PID.TID 0000.0001) useStrainTensionVisc =   /* Use StrainTension Form of Viscous Operator on/off flag*/
(PID.TID 0000.0001)                   F
(PID.TID 0000.0001)     ;
(PID.TID 0000.0001) useAreaViscLength =   /* Use area for visc length instead of geom. mean*/
(PID.TID 0000.0001)                   F
(PID.TID 0000.0001)     ;
(PID.TID 0000.0001) viscC2leith = /* Leith harmonic visc. factor (on grad(vort),non-dim.) */
(PID.TID 0000.0001)                 0.000000000000000E+00
(PID.TID 0000.0001)     ;
(PID.TID 0000.0001) viscC2leithD = /* Leith harmonic viscosity factor (on grad(div),non-dim.) */
(PID.TID 0000.0001)                 0.000000000000000E+00
(PID.TID 0000.0001)     ;
(PID.TID 0000.0001) viscC2smag =   /* Smagorinsky harmonic viscosity factor (non-dim.) */
(PID.TID 0000.0001)                 0.000000000000000E+00
(PID.TID 0000.0001)     ;
(PID.TID 0000.0001) viscA4 =   /* Lateral biharmonic viscosity ( m^4/s ) */
(PID.TID 0000.0001)                 0.000000000000000E+00
(PID.TID 0000.0001)     ;
(PID.TID 0000.0001) viscA4Max =   /* Maximum biharmonic viscosity ( m^2/s ) */
(PID.TID 0000.0001)                 1.000000000000000E+21
(PID.TID 0000.0001)     ;
(PID.TID 0000.0001) viscA4Grid =   /* Grid dependent biharmonic viscosity ( non-dim. ) */
(PID.TID 0000.0001)                 0.000000000000000E+00
(PID.TID 0000.0001)     ;
(PID.TID 0000.0001) viscC4leith = /* Leith biharm viscosity factor (on grad(vort), non-dim.) */
(PID.TID 0000.0001)                 0.000000000000000E+00
(PID.TID 0000.0001)     ;
(PID.TID 0000.0001) viscC4leithD = /* Leith biharm viscosity factor (on grad(div), non-dim.) */
(PID.TID 0000.0001)                 0.000000000000000E+00
(PID.TID 0000.0001)     ;
(PID.TID 0000.0001) viscC4Smag = /* Smagorinsky biharm viscosity factor (non-dim) */
(PID.TID 0000.0001)                 0.000000000000000E+00
(PID.TID 0000.0001)     ;
(PID.TID 0000.0001) no_slip_sides =  /* Viscous BCs: No-slip sides */
(PID.TID 0000.0001)                   F
(PID.TID 0000.0001)     ;
(PID.TID 0000.0001) sideDragFactor = /* side-drag scaling factor (non-dim) */
(PID.TID 0000.0001)                 2.000000000000000E+00
(PID.TID 0000.0001)     ;
(PID.TID 0000.0001) viscAr =   /* Vertical eddy viscosity ( units of r^2/s ) */
(PID.TID 0000.0001)                 1.000000000000000E-03
(PID.TID 0000.0001)     ;
(PID.TID 0000.0001) no_slip_bottom =  /* Viscous BCs: No-slip bottom */
(PID.TID 0000.0001)                   T
(PID.TID 0000.0001)     ;
(PID.TID 0000.0001) bottomDragLinear = /* linear bottom-drag coefficient ( 1/s ) */
(PID.TID 0000.0001)                 1.000000000000000E-03
(PID.TID 0000.0001)     ;
(PID.TID 0000.0001) bottomDragQuadratic = /* quadratic bottom-drag coeff. ( 1/m ) */
(PID.TID 0000.0001)                 0.000000000000000E+00
(PID.TID 0000.0001)     ;
(PID.TID 0000.0001) diffKhT =   /* Laplacian diffusion of heat laterally ( m^2/s ) */
(PID.TID 0000.0001)                 0.000000000000000E+00
(PID.TID 0000.0001)     ;
(PID.TID 0000.0001) diffK4T =   /* Bihaarmonic diffusion of heat laterally ( m^4/s ) */
(PID.TID 0000.0001)                 0.000000000000000E+00
(PID.TID 0000.0001)     ;
(PID.TID 0000.0001) diffKhS =   /* Laplacian diffusion of salt laterally ( m^2/s ) */
(PID.TID 0000.0001)                 0.000000000000000E+00
(PID.TID 0000.0001)     ;
(PID.TID 0000.0001) diffK4S =   /* Bihaarmonic diffusion of salt laterally ( m^4/s ) */
(PID.TID 0000.0001)                 0.000000000000000E+00
(PID.TID 0000.0001)     ;
(PID.TID 0000.0001) diffKrNrT = /* vertical profile of vertical diffusion of Temp ( m^2/s )*/
(PID.TID 0000.0001)                 1.000000000000000E-04,      /* K =  1 */
(PID.TID 0000.0001)    14 @  1.000000000000000E-05              /* K =  2: 15 */
(PID.TID 0000.0001)     ;
(PID.TID 0000.0001) diffKrNrS = /* vertical profile of vertical diffusion of Salt ( m^2/s )*/
(PID.TID 0000.0001)    15 @  0.000000000000000E+00              /* K =  1: 15 */
(PID.TID 0000.0001)     ;
(PID.TID 0000.0001) diffKrBL79surf =   /* Surface diffusion for Bryan and Lewis 1979 ( m^2/s ) */
(PID.TID 0000.0001)                 0.000000000000000E+00
(PID.TID 0000.0001)     ;
(PID.TID 0000.0001) diffKrBL79deep =   /* Deep diffusion for Bryan and Lewis 1979 ( m^2/s ) */
(PID.TID 0000.0001)                 0.000000000000000E+00
(PID.TID 0000.0001)     ;
(PID.TID 0000.0001) diffKrBL79scl =   /* Depth scale for Bryan and Lewis 1979 ( m ) */
(PID.TID 0000.0001)                 2.000000000000000E+02
(PID.TID 0000.0001)     ;
(PID.TID 0000.0001) diffKrBL79Ho =   /* Turning depth for Bryan and Lewis 1979 ( m ) */
(PID.TID 0000.0001)                -2.000000000000000E+03
(PID.TID 0000.0001)     ;
(PID.TID 0000.0001) Equation of State : eosType = LINEAR ;
(PID.TID 0000.0001) tAlpha =   /* Linear EOS thermal expansion coefficient ( 1/oC ) */
(PID.TID 0000.0001)                 2.000000000000000E-04
(PID.TID 0000.0001)     ;
(PID.TID 0000.0001) sBeta =   /* Linear EOS haline contraction coefficient ( 1/psu ) */
(PID.TID 0000.0001)                 0.000000000000000E+00
(PID.TID 0000.0001)     ;
(PID.TID 0000.0001) rhonil =   /* Reference density ( kg/m^3 ) */
(PID.TID 0000.0001)                 1.035000000000000E+03
(PID.TID 0000.0001)     ;
(PID.TID 0000.0001) rhoConst =   /* Reference density ( kg/m^3 ) */
(PID.TID 0000.0001)                 1.035000000000000E+03
(PID.TID 0000.0001)     ;
(PID.TID 0000.0001) rhoFacC = /* normalized Reference density @ cell-Center (-) */
(PID.TID 0000.0001)    15 @  1.000000000000000E+00              /* K =  1: 15 */
(PID.TID 0000.0001)     ;
(PID.TID 0000.0001) rhoFacF = /* normalized Reference density @ W-Interface (-) */
(PID.TID 0000.0001)    16 @  1.000000000000000E+00              /* K =  1: 16 */
(PID.TID 0000.0001)     ;
(PID.TID 0000.0001) rhoConstFresh =   /* Reference density ( kg/m^3 ) */
(PID.TID 0000.0001)                 1.035000000000000E+03
(PID.TID 0000.0001)     ;
(PID.TID 0000.0001) gravity =   /* Gravitational acceleration ( m/s^2 ) */
(PID.TID 0000.0001)                 9.810000000000000E+00
(PID.TID 0000.0001)     ;
(PID.TID 0000.0001) gBaro =   /* Barotropic gravity ( m/s^2 ) */
(PID.TID 0000.0001)                 9.810000000000000E+00
(PID.TID 0000.0001)     ;
(PID.TID 0000.0001) rotationPeriod =   /* Rotation Period ( s ) */
(PID.TID 0000.0001)                 8.640000000000000E+04
(PID.TID 0000.0001)     ;
(PID.TID 0000.0001) omega =   /* Angular velocity ( rad/s ) */
(PID.TID 0000.0001)                 7.272205216643040E-05
(PID.TID 0000.0001)     ;
(PID.TID 0000.0001) f0 =   /* Reference coriolis parameter ( 1/s ) */
(PID.TID 0000.0001)                 1.000000000000000E-04
(PID.TID 0000.0001)     ;
(PID.TID 0000.0001) beta =   /* Beta ( 1/(m.s) ) */
(PID.TID 0000.0001)                 9.999999999999999E-12
(PID.TID 0000.0001)     ;
(PID.TID 0000.0001) freeSurfFac =   /* Implicit free surface factor */
(PID.TID 0000.0001)                 1.000000000000000E+00
(PID.TID 0000.0001)     ;
(PID.TID 0000.0001) implicitFreeSurface =   /* Implicit free surface on/off flag */
(PID.TID 0000.0001)                   T
(PID.TID 0000.0001)     ;
(PID.TID 0000.0001) rigidLid =   /* Rigid lid on/off flag */
(PID.TID 0000.0001)                   F
(PID.TID 0000.0001)     ;
(PID.TID 0000.0001) implicSurfPress =   /* Surface Pressure implicit factor (0-1)*/
(PID.TID 0000.0001)                 1.000000000000000E+00
(PID.TID 0000.0001)     ;
(PID.TID 0000.0001) implicDiv2Dflow =   /* Barot. Flow Div. implicit factor (0-1)*/
(PID.TID 0000.0001)                 1.000000000000000E+00
(PID.TID 0000.0001)     ;
(PID.TID 0000.0001) exactConserv =   /* Exact Volume Conservation on/off flag*/
(PID.TID 0000.0001)                   T
(PID.TID 0000.0001)     ;
(PID.TID 0000.0001) uniformLin_PhiSurf =   /* use uniform Bo_surf on/off flag*/
(PID.TID 0000.0001)                   T
(PID.TID 0000.0001)     ;
(PID.TID 0000.0001) nonlinFreeSurf =   /* Non-linear Free Surf. options (-1,0,1,2,3)*/
(PID.TID 0000.0001)                       0
(PID.TID 0000.0001)     ;
(PID.TID 0000.0001)      -1,0= Off ; 1,2,3= On, 2=+rescale gU,gV, 3=+update cg2d solv.
(PID.TID 0000.0001) hFacInf =   /* lower threshold for hFac (nonlinFreeSurf only)*/
(PID.TID 0000.0001)                 2.000000000000000E-01
(PID.TID 0000.0001)     ;
(PID.TID 0000.0001) hFacSup =   /* upper threshold for hFac (nonlinFreeSurf only)*/
(PID.TID 0000.0001)                 2.000000000000000E+00
(PID.TID 0000.0001)     ;
(PID.TID 0000.0001) select_rStar =   /* r* Coordinate options (not yet implemented)*/
(PID.TID 0000.0001)                       0
(PID.TID 0000.0001)     ;
(PID.TID 0000.0001) useRealFreshWaterFlux =   /* Real Fresh Water Flux on/off flag*/
(PID.TID 0000.0001)                   F
(PID.TID 0000.0001)     ;
(PID.TID 0000.0001) convertFW2Salt = /* convert F.W. Flux to Salt Flux (-1=use local S)(ppt)*/
(PID.TID 0000.0001)                 3.500000000000000E+01
(PID.TID 0000.0001)     ;
(PID.TID 0000.0001) use3Dsolver = /* use 3-D pressure solver on/off flag */
(PID.TID 0000.0001)                   F
(PID.TID 0000.0001)     ;
(PID.TID 0000.0001) nonHydrostatic =  /* Non-Hydrostatic on/off flag */
(PID.TID 0000.0001)                   F
(PID.TID 0000.0001)     ;
(PID.TID 0000.0001) nh_Am2 = /* Non-Hydrostatic terms scaling factor */
(PID.TID 0000.0001)                 1.000000000000000E+00
(PID.TID 0000.0001)     ;
(PID.TID 0000.0001) quasiHydrostatic = /* Quasi-Hydrostatic on/off flag */
(PID.TID 0000.0001)                   F
(PID.TID 0000.0001)     ;
(PID.TID 0000.0001) momStepping =  /* Momentum equation on/off flag */
(PID.TID 0000.0001)                   T
(PID.TID 0000.0001)     ;
(PID.TID 0000.0001) vectorInvariantMomentum= /* Vector-Invariant Momentum on/off */
(PID.TID 0000.0001)                   F
(PID.TID 0000.0001)     ;
(PID.TID 0000.0001) momAdvection =  /* Momentum advection on/off flag */
(PID.TID 0000.0001)                   T
(PID.TID 0000.0001)     ;
(PID.TID 0000.0001) momViscosity =  /* Momentum viscosity on/off flag */
(PID.TID 0000.0001)                   T
(PID.TID 0000.0001)     ;
(PID.TID 0000.0001) momImplVertAdv =/* Momentum implicit vert. advection on/off*/
(PID.TID 0000.0001)                   F
(PID.TID 0000.0001)     ;
(PID.TID 0000.0001) implicitViscosity = /* Implicit viscosity on/off flag */
(PID.TID 0000.0001)                   F
(PID.TID 0000.0001)     ;
(PID.TID 0000.0001) metricTerms =  /* metric-Terms on/off flag */
(PID.TID 0000.0001)                   T
(PID.TID 0000.0001)     ;
(PID.TID 0000.0001) useNHMTerms = /* Non-Hydrostatic Metric-Terms on/off */
(PID.TID 0000.0001)                   F
(PID.TID 0000.0001)     ;
(PID.TID 0000.0001) useConstantF =  /* use Constant f0 Coriolis flag */
(PID.TID 0000.0001)                   F
(PID.TID 0000.0001)     ;
(PID.TID 0000.0001) useBetaPlaneF = /* use Beta-Plane Coriolis flag */
(PID.TID 0000.0001)                   F
(PID.TID 0000.0001)     ;
(PID.TID 0000.0001) useSphereF  =   /* use Spherical Coriolis flag */
(PID.TID 0000.0001)                   T
(PID.TID 0000.0001)     ;
(PID.TID 0000.0001) use3dCoriolis = /* 3-D Coriolis on/off flag */
(PID.TID 0000.0001)                   F
(PID.TID 0000.0001)     ;
(PID.TID 0000.0001) useCoriolis =  /* Coriolis on/off flag */
(PID.TID 0000.0001)                   T
(PID.TID 0000.0001)     ;
(PID.TID 0000.0001) useCDscheme =  /* CD scheme on/off flag */
(PID.TID 0000.0001)                   T
(PID.TID 0000.0001)     ;
(PID.TID 0000.0001) useJamartWetPoints= /* Coriolis WetPoints method flag */
(PID.TID 0000.0001)                   F
(PID.TID 0000.0001)     ;
(PID.TID 0000.0001) useJamartMomAdv= /* V.I. Non-linear terms Jamart flag */
(PID.TID 0000.0001)                   F
(PID.TID 0000.0001)     ;
(PID.TID 0000.0001) SadournyCoriolis= /* Sadourny Coriolis discr. flag */
(PID.TID 0000.0001)                   F
(PID.TID 0000.0001)     ;
(PID.TID 0000.0001) upwindVorticity= /* Upwind bias vorticity flag */
(PID.TID 0000.0001)                   F
(PID.TID 0000.0001)     ;
(PID.TID 0000.0001) useAbsVorticity= /* Work with f+zeta in Coriolis */
(PID.TID 0000.0001)                   F
(PID.TID 0000.0001)     ;
(PID.TID 0000.0001) highOrderVorticity= /* High order interp. of vort. flag */
(PID.TID 0000.0001)                   F
(PID.TID 0000.0001)     ;
(PID.TID 0000.0001) upwindShear= /* Upwind vertical Shear advection flag */
(PID.TID 0000.0001)                   F
(PID.TID 0000.0001)     ;
(PID.TID 0000.0001) selectKEscheme= /* Kinetic Energy scheme selector */
(PID.TID 0000.0001)                       0
(PID.TID 0000.0001)     ;
(PID.TID 0000.0001) momForcing =  /* Momentum forcing on/off flag */
(PID.TID 0000.0001)                   T
(PID.TID 0000.0001)     ;
(PID.TID 0000.0001) momPressureForcing =  /* Momentum pressure term on/off flag */
(PID.TID 0000.0001)                   T
(PID.TID 0000.0001)     ;
(PID.TID 0000.0001) implicitIntGravWave= /* Implicit Internal Gravity Wave flag */
(PID.TID 0000.0001)                   F
(PID.TID 0000.0001)     ;
(PID.TID 0000.0001) staggerTimeStep =   /* Stagger time stepping on/off flag */
(PID.TID 0000.0001)                   T
(PID.TID 0000.0001)     ;
(PID.TID 0000.0001) multiDimAdvection =   /* enable/disable Multi-Dim Advection */
(PID.TID 0000.0001)                   T
(PID.TID 0000.0001)     ;
(PID.TID 0000.0001) useMultiDimAdvec =   /* Multi-Dim Advection is/is-not used */
(PID.TID 0000.0001)                   T
(PID.TID 0000.0001)     ;
(PID.TID 0000.0001) implicitDiffusion =/* Implicit Diffusion on/off flag */
(PID.TID 0000.0001)                   T
(PID.TID 0000.0001)     ;
(PID.TID 0000.0001) tempStepping =  /* Temperature equation on/off flag */
(PID.TID 0000.0001)                   T
(PID.TID 0000.0001)     ;
(PID.TID 0000.0001) tempAdvection=  /* Temperature advection on/off flag */
(PID.TID 0000.0001)                   T
(PID.TID 0000.0001)     ;
(PID.TID 0000.0001) tempImplVertAdv =/* Temp. implicit vert. advection on/off */
(PID.TID 0000.0001)                   F
(PID.TID 0000.0001)     ;
(PID.TID 0000.0001) tempForcing  =  /* Temperature forcing on/off flag */
(PID.TID 0000.0001)                   T
(PID.TID 0000.0001)     ;
(PID.TID 0000.0001) saltStepping =  /* Salinity equation on/off flag */
(PID.TID 0000.0001)                   F
(PID.TID 0000.0001)     ;
(PID.TID 0000.0001) saltAdvection=  /* Salinity advection on/off flag */
(PID.TID 0000.0001)                   F
(PID.TID 0000.0001)     ;
(PID.TID 0000.0001) saltImplVertAdv =/* Sali. implicit vert. advection on/off */
(PID.TID 0000.0001)                   F
(PID.TID 0000.0001)     ;
(PID.TID 0000.0001) saltForcing  =  /* Salinity forcing on/off flag */
(PID.TID 0000.0001)                   F
(PID.TID 0000.0001)     ;
(PID.TID 0000.0001)  readBinaryPrec = /* Precision used for reading binary files */
(PID.TID 0000.0001)                      64
(PID.TID 0000.0001)     ;
(PID.TID 0000.0001) writeBinaryPrec = /* Precision used for writing binary files */
(PID.TID 0000.0001)                      32
(PID.TID 0000.0001)     ;
(PID.TID 0000.0001)  globalFiles = /* write "global" (=not per tile) files */
(PID.TID 0000.0001)                   F
(PID.TID 0000.0001)     ;
(PID.TID 0000.0001)  useSingleCpuIO = /* only master MPI process does I/O */
(PID.TID 0000.0001)                   F
(PID.TID 0000.0001)     ;
(PID.TID 0000.0001)  debugMode  =  /* Debug Mode on/off flag */
(PID.TID 0000.0001)                   F
(PID.TID 0000.0001)     ;
(PID.TID 0000.0001)    debLevA  =  /* 1rst level of debugging */
(PID.TID 0000.0001)                       1
(PID.TID 0000.0001)     ;
(PID.TID 0000.0001)    debLevB  =  /* 2nd  level of debugging */
(PID.TID 0000.0001)                       2
(PID.TID 0000.0001)     ;
(PID.TID 0000.0001)  debugLevel =  /* select debugging level */
(PID.TID 0000.0001)                       1
(PID.TID 0000.0001)     ;
(PID.TID 0000.0001) //
(PID.TID 0000.0001) // Elliptic solver(s) paramters ( PARM02 in namelist )
(PID.TID 0000.0001) //
(PID.TID 0000.0001) cg2dMaxIters =   /* Upper limit on 2d con. grad iterations  */
(PID.TID 0000.0001)                    1000
(PID.TID 0000.0001)     ;
(PID.TID 0000.0001) cg2dChkResFreq =   /* 2d con. grad convergence test frequency */
(PID.TID 0000.0001)                       1
(PID.TID 0000.0001)     ;
(PID.TID 0000.0001) cg2dTargetResidual =   /* 2d con. grad target residual  */
(PID.TID 0000.0001)                 1.000000000000000E-07
(PID.TID 0000.0001)     ;
(PID.TID 0000.0001) cg2dTargetResWunit =   /* CG2d target residual [W units] */
(PID.TID 0000.0001)                 1.000000000000000E-17
(PID.TID 0000.0001)     ;
(PID.TID 0000.0001) cg2dPreCondFreq =   /* Freq. for updating cg2d preconditioner */
(PID.TID 0000.0001)                       1
(PID.TID 0000.0001)     ;
(PID.TID 0000.0001) //
(PID.TID 0000.0001) // Time stepping paramters ( PARM03 in namelist )
(PID.TID 0000.0001) //
(PID.TID 0000.0001) nIter0 =   /* Run starting timestep number  */
(PID.TID 0000.0001)                   36000
(PID.TID 0000.0001)     ;
(PID.TID 0000.0001) nTimeSteps =   /* Number of timesteps */
(PID.TID 0000.0001)                      20
(PID.TID 0000.0001)     ;
(PID.TID 0000.0001) deltaTmom =   /* Momentum equation timestep ( s ) */
(PID.TID 0000.0001)                 1.200000000000000E+03
(PID.TID 0000.0001)     ;
(PID.TID 0000.0001) deltaTfreesurf =   /* FreeSurface equation timestep ( s ) */
(PID.TID 0000.0001)                 3.600000000000000E+03
(PID.TID 0000.0001)     ;
(PID.TID 0000.0001) dTtracerLev =   /* Tracer equation timestep ( s ) */
(PID.TID 0000.0001)    15 @  8.640000000000000E+04              /* K =  1: 15 */
(PID.TID 0000.0001)     ;
(PID.TID 0000.0001) deltaTClock  =   /* Model clock timestep ( s ) */
(PID.TID 0000.0001)                 8.640000000000000E+04
(PID.TID 0000.0001)     ;
(PID.TID 0000.0001) cAdjFreq =   /* Convective adjustment interval ( s ) */
(PID.TID 0000.0001)                 0.000000000000000E+00
(PID.TID 0000.0001)     ;
(PID.TID 0000.0001) momForcingOutAB = /* =1: take Momentum Forcing out of Adams-Bash. stepping */
(PID.TID 0000.0001)                       0
(PID.TID 0000.0001)     ;
(PID.TID 0000.0001) tracForcingOutAB = /* =1: take T,S,pTr Forcing out of Adams-Bash. stepping */
(PID.TID 0000.0001)                       0
(PID.TID 0000.0001)     ;
(PID.TID 0000.0001) momDissip_In_AB = /* put Dissipation Tendency in Adams-Bash. stepping */
(PID.TID 0000.0001)                   T
(PID.TID 0000.0001)     ;
(PID.TID 0000.0001) doAB_onGtGs = /* apply AB on Tendencies (rather than on T,S)*/
(PID.TID 0000.0001)                   T
(PID.TID 0000.0001)     ;
(PID.TID 0000.0001) abEps =   /* Adams-Bashforth-2 stabilizing weight */
(PID.TID 0000.0001)                 1.000000000000000E-01
(PID.TID 0000.0001)     ;
(PID.TID 0000.0001) tauCD =   /* CD coupling time-scale ( s ) */
(PID.TID 0000.0001)                 3.214280000000000E+05
(PID.TID 0000.0001)     ;
(PID.TID 0000.0001) rCD =   /* Normalised CD coupling parameter */
(PID.TID 0000.0001)                 9.962666600296178E-01
(PID.TID 0000.0001)     ;
(PID.TID 0000.0001) baseTime =   /* Model base time ( s ). */
(PID.TID 0000.0001)                 0.000000000000000E+00
(PID.TID 0000.0001)     ;
(PID.TID 0000.0001) startTime =   /* Run start time ( s ). */
(PID.TID 0000.0001)                 3.110400000000000E+09
(PID.TID 0000.0001)     ;
(PID.TID 0000.0001) endTime =   /* Integration ending time ( s ). */
(PID.TID 0000.0001)                 3.112128000000000E+09
(PID.TID 0000.0001)     ;
(PID.TID 0000.0001) pChkPtFreq =   /* Permanent restart/checkpoint file interval ( s ). */
(PID.TID 0000.0001)                 3.110400000000000E+09
(PID.TID 0000.0001)     ;
(PID.TID 0000.0001) chkPtFreq =   /* Rolling restart/checkpoint file interval ( s ). */
(PID.TID 0000.0001)                 0.000000000000000E+00
(PID.TID 0000.0001)     ;
(PID.TID 0000.0001) pickup_write_mdsio =   /* Model IO flag. */
(PID.TID 0000.0001)                   T
(PID.TID 0000.0001)     ;
(PID.TID 0000.0001) pickup_read_mdsio =   /* Model IO flag. */
(PID.TID 0000.0001)                   T
(PID.TID 0000.0001)     ;
(PID.TID 0000.0001) pickup_write_mnc =   /* Model IO flag. */
(PID.TID 0000.0001)                   F
(PID.TID 0000.0001)     ;
(PID.TID 0000.0001) pickup_read_mnc =   /* Model IO flag. */
(PID.TID 0000.0001)                   F
(PID.TID 0000.0001)     ;
(PID.TID 0000.0001) pickup_write_immed =   /* Model IO flag. */
(PID.TID 0000.0001)                   F
(PID.TID 0000.0001)     ;
(PID.TID 0000.0001) dumpFreq =   /* Model state write out interval ( s ). */
(PID.TID 0000.0001)                 1.555200000000000E+09
(PID.TID 0000.0001)     ;
(PID.TID 0000.0001) dumpInitAndLast= /* write out Initial & Last iter. model state */
(PID.TID 0000.0001)                   T
(PID.TID 0000.0001)     ;
(PID.TID 0000.0001) snapshot_mdsio =   /* Model IO flag. */
(PID.TID 0000.0001)                   F
(PID.TID 0000.0001)     ;
(PID.TID 0000.0001) snapshot_mnc =   /* Model IO flag. */
(PID.TID 0000.0001)                   T
(PID.TID 0000.0001)     ;
(PID.TID 0000.0001) monitorFreq =   /* Monitor output interval ( s ). */
(PID.TID 0000.0001)                 1.000000000000000E+00
(PID.TID 0000.0001)     ;
(PID.TID 0000.0001) monitor_stdio =   /* Model IO flag. */
(PID.TID 0000.0001)                   T
(PID.TID 0000.0001)     ;
(PID.TID 0000.0001) monitor_mnc =   /* Model IO flag. */
(PID.TID 0000.0001)                   F
(PID.TID 0000.0001)     ;
(PID.TID 0000.0001) externForcingPeriod =   /* forcing period (s) */
(PID.TID 0000.0001)                 0.000000000000000E+00
(PID.TID 0000.0001)     ;
(PID.TID 0000.0001) externForcingCycle =   /* period of the cyle (s). */
(PID.TID 0000.0001)                 0.000000000000000E+00
(PID.TID 0000.0001)     ;
(PID.TID 0000.0001) tauThetaClimRelax =   /* relaxation time scale (s) */
(PID.TID 0000.0001)                 2.592000000000000E+06
(PID.TID 0000.0001)     ;
(PID.TID 0000.0001) tauSaltClimRelax =   /* relaxation time scale (s) */
(PID.TID 0000.0001)                 0.000000000000000E+00
(PID.TID 0000.0001)     ;
(PID.TID 0000.0001) latBandClimRelax =   /* max. Lat. where relaxation */
(PID.TID 0000.0001)                 1.800000000000000E+02
(PID.TID 0000.0001)     ;
(PID.TID 0000.0001) //
(PID.TID 0000.0001) // Gridding paramters ( PARM04 in namelist )
(PID.TID 0000.0001) //
(PID.TID 0000.0001) usingCartesianGrid = /* Cartesian coordinates flag ( True/False ) */
(PID.TID 0000.0001)                   F
(PID.TID 0000.0001)     ;
(PID.TID 0000.0001) usingCylindricalGrid = /* Cylindrical coordinates flag ( True/False ) */
(PID.TID 0000.0001)                   F
(PID.TID 0000.0001)     ;
(PID.TID 0000.0001) usingSphericalPolarGrid = /* Spherical coordinates flag ( True/False ) */
(PID.TID 0000.0001)                   T
(PID.TID 0000.0001)     ;
(PID.TID 0000.0001) usingCurvilinearGrid = /* Curvilinear coordinates flag ( True/False ) */
(PID.TID 0000.0001)                   F
(PID.TID 0000.0001)     ;
(PID.TID 0000.0001) Ro_SeaLevel = /* r(1) ( units of r ) */
(PID.TID 0000.0001)                 0.000000000000000E+00
(PID.TID 0000.0001)     ;
(PID.TID 0000.0001) rkSign =   /* index orientation relative to vertical coordinate */
(PID.TID 0000.0001)                -1.000000000000000E+00
(PID.TID 0000.0001)     ;
(PID.TID 0000.0001) gravitySign = /* gravity orientation relative to vertical coordinate */
(PID.TID 0000.0001)                -1.000000000000000E+00
(PID.TID 0000.0001)     ;
(PID.TID 0000.0001) horiVertRatio =   /* Ratio on units : Horiz - Vertical */
(PID.TID 0000.0001)                 1.000000000000000E+00
(PID.TID 0000.0001)     ;
(PID.TID 0000.0001) drC =   /* C spacing ( units of r ) */
(PID.TID 0000.0001)                 2.000000000000000E+01,      /* K =  1 */
(PID.TID 0000.0001)                 6.000000000000000E+01,      /* K =  2 */
(PID.TID 0000.0001)                 8.500000000000000E+01,      /* K =  3 */
(PID.TID 0000.0001)                 1.200000000000000E+02,      /* K =  4 */
(PID.TID 0000.0001)                 1.650000000000000E+02,      /* K =  5 */
(PID.TID 0000.0001)                 2.150000000000000E+02,      /* K =  6 */
(PID.TID 0000.0001)                 2.650000000000000E+02,      /* K =  7 */
(PID.TID 0000.0001)                 3.150000000000000E+02,      /* K =  8 */
(PID.TID 0000.0001)                 3.650000000000000E+02,      /* K =  9 */
(PID.TID 0000.0001)                 4.150000000000000E+02,      /* K = 10 */
(PID.TID 0000.0001)                 4.650000000000000E+02,      /* K = 11 */
(PID.TID 0000.0001)                 5.150000000000000E+02,      /* K = 12 */
(PID.TID 0000.0001)                 5.650000000000000E+02,      /* K = 13 */
(PID.TID 0000.0001)                 6.150000000000000E+02,      /* K = 14 */
(PID.TID 0000.0001)                 6.650000000000000E+02       /* K = 15 */
(PID.TID 0000.0001)     ;
(PID.TID 0000.0001) drF =   /* W spacing ( units of r ) */
(PID.TID 0000.0001)                 5.000000000000000E+01,      /* K =  1 */
(PID.TID 0000.0001)                 7.250000000000000E+01,      /* K =  2 */
(PID.TID 0000.0001)                 1.025000000000000E+02,      /* K =  3 */
(PID.TID 0000.0001)                 1.425000000000000E+02,      /* K =  4 */
(PID.TID 0000.0001)                 1.900000000000000E+02,      /* K =  5 */
(PID.TID 0000.0001)                 2.400000000000000E+02,      /* K =  6 */
(PID.TID 0000.0001)                 2.900000000000000E+02,      /* K =  7 */
(PID.TID 0000.0001)                 3.400000000000000E+02,      /* K =  8 */
(PID.TID 0000.0001)                 3.900000000000000E+02,      /* K =  9 */
(PID.TID 0000.0001)                 4.400000000000000E+02,      /* K = 10 */
(PID.TID 0000.0001)                 4.900000000000000E+02,      /* K = 11 */
(PID.TID 0000.0001)                 5.400000000000000E+02,      /* K = 12 */
(PID.TID 0000.0001)                 5.900000000000000E+02,      /* K = 13 */
(PID.TID 0000.0001)                 6.400000000000000E+02,      /* K = 14 */
(PID.TID 0000.0001)                 6.825000000000000E+02       /* K = 15 */
(PID.TID 0000.0001)     ;
(PID.TID 0000.0001) delX =   /* U spacing ( m - cartesian, degrees - spherical ) */
(PID.TID 0000.0001)                 3.000000000000000E+00       /* I =  1 */
(PID.TID 0000.0001)     ;
(PID.TID 0000.0001) delY =   /* V spacing ( m - cartesian, degrees - spherical ) */
(PID.TID 0000.0001)    56 @  3.000000000000000E+00              /* J =  1: 56 */
(PID.TID 0000.0001)     ;
(PID.TID 0000.0001) phiMin =    /* South edge (ignored - cartesian, degrees - spherical ) */
(PID.TID 0000.0001)                -8.400000000000000E+01
(PID.TID 0000.0001)     ;
(PID.TID 0000.0001) thetaMin =    /* West edge ( ignored - cartesian, degrees - spherical ) */
(PID.TID 0000.0001)                 0.000000000000000E+00
(PID.TID 0000.0001)     ;
(PID.TID 0000.0001) rSphere =  /* Radius ( ignored - cartesian, m - spherical ) */
(PID.TID 0000.0001)                 6.370000000000000E+06
(PID.TID 0000.0001)     ;
(PID.TID 0000.0001) deepAtmosphere = /* Deep/Shallow Atmosphere flag (True/False) */
(PID.TID 0000.0001)                   F
(PID.TID 0000.0001)     ;
(PID.TID 0000.0001) xcoord =   /* P-point X coord ( m - cartesian, degrees - spherical ) */
(PID.TID 0000.0001)                 1.500000000000000E+00       /* I =  1 */
(PID.TID 0000.0001)     ;
(PID.TID 0000.0001) ycoord =   /* P-point Y coord ( m - cartesian, degrees - spherical ) */
(PID.TID 0000.0001)                -8.250000000000000E+01,      /* J =  1 */
(PID.TID 0000.0001)                -7.950000000000000E+01,      /* J =  2 */
(PID.TID 0000.0001)                -7.650000000000000E+01,      /* J =  3 */
(PID.TID 0000.0001)                -7.350000000000000E+01,      /* J =  4 */
(PID.TID 0000.0001)                -7.050000000000000E+01,      /* J =  5 */
(PID.TID 0000.0001)                -6.750000000000000E+01,      /* J =  6 */
(PID.TID 0000.0001)                -6.450000000000000E+01,      /* J =  7 */
(PID.TID 0000.0001)                -6.150000000000000E+01,      /* J =  8 */
(PID.TID 0000.0001)                -5.850000000000000E+01,      /* J =  9 */
(PID.TID 0000.0001)                -5.550000000000000E+01,      /* J = 10 */
(PID.TID 0000.0001)                -5.250000000000000E+01,      /* J = 11 */
(PID.TID 0000.0001)                -4.950000000000000E+01,      /* J = 12 */
(PID.TID 0000.0001)                -4.650000000000000E+01,      /* J = 13 */
(PID.TID 0000.0001)                -4.350000000000000E+01,      /* J = 14 */
(PID.TID 0000.0001)                -4.050000000000000E+01,      /* J = 15 */
(PID.TID 0000.0001)                -3.750000000000000E+01,      /* J = 16 */
(PID.TID 0000.0001)                -3.450000000000000E+01,      /* J = 17 */
(PID.TID 0000.0001)                -3.150000000000000E+01,      /* J = 18 */
(PID.TID 0000.0001)                -2.850000000000000E+01,      /* J = 19 */
(PID.TID 0000.0001)                -2.550000000000000E+01,      /* J = 20 */
(PID.TID 0000.0001)                -2.250000000000000E+01,      /* J = 21 */
(PID.TID 0000.0001)                -1.950000000000000E+01,      /* J = 22 */
(PID.TID 0000.0001)                -1.650000000000000E+01,      /* J = 23 */
(PID.TID 0000.0001)                -1.350000000000000E+01,      /* J = 24 */
(PID.TID 0000.0001)                -1.050000000000000E+01,      /* J = 25 */
(PID.TID 0000.0001)                -7.500000000000000E+00,      /* J = 26 */
(PID.TID 0000.0001)                -4.500000000000000E+00,      /* J = 27 */
(PID.TID 0000.0001)                -1.500000000000000E+00,      /* J = 28 */
(PID.TID 0000.0001)                 1.500000000000000E+00,      /* J = 29 */
(PID.TID 0000.0001)                 4.500000000000000E+00,      /* J = 30 */
(PID.TID 0000.0001)                 7.500000000000000E+00,      /* J = 31 */
(PID.TID 0000.0001)                 1.050000000000000E+01,      /* J = 32 */
(PID.TID 0000.0001)                 1.350000000000000E+01,      /* J = 33 */
(PID.TID 0000.0001)                 1.650000000000000E+01,      /* J = 34 */
(PID.TID 0000.0001)                 1.950000000000000E+01,      /* J = 35 */
(PID.TID 0000.0001)                 2.250000000000000E+01,      /* J = 36 */
(PID.TID 0000.0001)                 2.550000000000000E+01,      /* J = 37 */
(PID.TID 0000.0001)                 2.850000000000000E+01,      /* J = 38 */
(PID.TID 0000.0001)                 3.150000000000000E+01,      /* J = 39 */
(PID.TID 0000.0001)                 3.450000000000000E+01,      /* J = 40 */
(PID.TID 0000.0001)                 3.750000000000000E+01,      /* J = 41 */
(PID.TID 0000.0001)                 4.050000000000000E+01,      /* J = 42 */
(PID.TID 0000.0001)                 4.350000000000000E+01,      /* J = 43 */
(PID.TID 0000.0001)                 4.650000000000000E+01,      /* J = 44 */
(PID.TID 0000.0001)                 4.950000000000000E+01,      /* J = 45 */
(PID.TID 0000.0001)                 5.250000000000000E+01,      /* J = 46 */
(PID.TID 0000.0001)                 5.550000000000000E+01,      /* J = 47 */
(PID.TID 0000.0001)                 5.850000000000000E+01,      /* J = 48 */
(PID.TID 0000.0001)                 6.150000000000000E+01,      /* J = 49 */
(PID.TID 0000.0001)                 6.450000000000000E+01,      /* J = 50 */
(PID.TID 0000.0001)                 6.750000000000000E+01,      /* J = 51 */
(PID.TID 0000.0001)                 7.050000000000000E+01,      /* J = 52 */
(PID.TID 0000.0001)                 7.350000000000000E+01,      /* J = 53 */
(PID.TID 0000.0001)                 7.650000000000000E+01,      /* J = 54 */
(PID.TID 0000.0001)                 7.950000000000000E+01,      /* J = 55 */
(PID.TID 0000.0001)                 8.250000000000000E+01       /* J = 56 */
(PID.TID 0000.0001)     ;
(PID.TID 0000.0001) rcoord =   /* P-point R coordinate (  units of r ) */
(PID.TID 0000.0001)                -2.000000000000000E+01,      /* K =  1 */
(PID.TID 0000.0001)                -8.000000000000000E+01,      /* K =  2 */
(PID.TID 0000.0001)                -1.650000000000000E+02,      /* K =  3 */
(PID.TID 0000.0001)                -2.850000000000000E+02,      /* K =  4 */
(PID.TID 0000.0001)                -4.500000000000000E+02,      /* K =  5 */
(PID.TID 0000.0001)                -6.650000000000000E+02,      /* K =  6 */
(PID.TID 0000.0001)                -9.300000000000000E+02,      /* K =  7 */
(PID.TID 0000.0001)                -1.245000000000000E+03,      /* K =  8 */
(PID.TID 0000.0001)                -1.610000000000000E+03,      /* K =  9 */
(PID.TID 0000.0001)                -2.025000000000000E+03,      /* K = 10 */
(PID.TID 0000.0001)                -2.490000000000000E+03,      /* K = 11 */
(PID.TID 0000.0001)                -3.005000000000000E+03,      /* K = 12 */
(PID.TID 0000.0001)                -3.570000000000000E+03,      /* K = 13 */
(PID.TID 0000.0001)                -4.185000000000000E+03,      /* K = 14 */
(PID.TID 0000.0001)                -4.850000000000000E+03       /* K = 15 */
(PID.TID 0000.0001)     ;
(PID.TID 0000.0001) rF =   /* W-Interf. R coordinate (  units of r ) */
(PID.TID 0000.0001)                 0.000000000000000E+00,      /* K =  1 */
(PID.TID 0000.0001)                -5.000000000000000E+01,      /* K =  2 */
(PID.TID 0000.0001)                -1.225000000000000E+02,      /* K =  3 */
(PID.TID 0000.0001)                -2.250000000000000E+02,      /* K =  4 */
(PID.TID 0000.0001)                -3.675000000000000E+02,      /* K =  5 */
(PID.TID 0000.0001)                -5.575000000000000E+02,      /* K =  6 */
(PID.TID 0000.0001)                -7.975000000000000E+02,      /* K =  7 */
(PID.TID 0000.0001)                -1.087500000000000E+03,      /* K =  8 */
(PID.TID 0000.0001)                -1.427500000000000E+03,      /* K =  9 */
(PID.TID 0000.0001)                -1.817500000000000E+03,      /* K = 10 */
(PID.TID 0000.0001)                -2.257500000000000E+03,      /* K = 11 */
(PID.TID 0000.0001)                -2.747500000000000E+03,      /* K = 12 */
(PID.TID 0000.0001)                -3.287500000000000E+03,      /* K = 13 */
(PID.TID 0000.0001)                -3.877500000000000E+03,      /* K = 14 */
(PID.TID 0000.0001)                -4.517500000000000E+03,      /* K = 15 */
(PID.TID 0000.0001)                -5.200000000000000E+03       /* K = 16 */
(PID.TID 0000.0001)     ;
(PID.TID 0000.0001) deepFacC = /* deep-model grid factor @ cell-Center (-) */
(PID.TID 0000.0001)    15 @  1.000000000000000E+00              /* K =  1: 15 */
(PID.TID 0000.0001)     ;
(PID.TID 0000.0001) deepFacF = /* deep-model grid factor @ W-Interface (-) */
(PID.TID 0000.0001)    16 @  1.000000000000000E+00              /* K =  1: 16 */
(PID.TID 0000.0001)     ;
(PID.TID 0000.0001) dBdrRef = /* Vertical gradient of reference boyancy [(m/s/r)^2)] */
(PID.TID 0000.0001)                 0.000000000000000E+00,      /* K =  1 */
(PID.TID 0000.0001)                 8.175000000000001E-05,      /* K =  2 */
(PID.TID 0000.0001)                 7.386352941176473E-05,      /* K =  3 */
(PID.TID 0000.0001)                 4.414500000000000E-05,      /* K =  4 */
(PID.TID 0000.0001)                 2.734909090909092E-05,      /* K =  5 */
(PID.TID 0000.0001)                 1.916372093023256E-05,      /* K =  6 */
(PID.TID 0000.0001)                 1.110566037735849E-05,      /* K =  7 */
(PID.TID 0000.0001)                 6.851428571428573E-06,      /* K =  8 */
(PID.TID 0000.0001)                 3.762739726027396E-06,      /* K =  9 */
(PID.TID 0000.0001)                 2.363855421686748E-06,      /* K = 10 */
(PID.TID 0000.0001)                 1.687741935483872E-06,      /* K = 11 */
(PID.TID 0000.0001)                 1.142912621359224E-06,      /* K = 12 */
(PID.TID 0000.0001)                 1.041769911504425E-06,      /* K = 13 */
(PID.TID 0000.0001)                 6.380487804878048E-07,      /* K = 14 */
(PID.TID 0000.0001)                 2.950375939849624E-07       /* K = 15 */
(PID.TID 0000.0001)     ;
(PID.TID 0000.0001) dxF =  /* dxF(:,1,:,1) ( units: m ) */
(PID.TID 0000.0001)                 4.353471677186367E+04       /* I =  1 */
[...]
(PID.TID 0000.0001) // =======================================================
(PID.TID 0000.0001) // Begin MONITOR dynamic field statistics
(PID.TID 0000.0001) // =======================================================
(PID.TID 0000.0001) %MON time_tsnumber                =                 36020
(PID.TID 0000.0001) %MON time_secondsf                =   3.1121280000000E+09
(PID.TID 0000.0001) %MON dynstat_eta_max              =   1.6151538730271E+00
(PID.TID 0000.0001) %MON dynstat_eta_min              =  -3.9247924316529E+00
(PID.TID 0000.0001) %MON dynstat_eta_mean             =  -2.9783971202332E-16
(PID.TID 0000.0001) %MON dynstat_eta_sd               =   1.6489387001941E+00
(PID.TID 0000.0001) %MON dynstat_eta_del2             =   1.3949846099087E-02
(PID.TID 0000.0001) %MON dynstat_uvel_max             =   1.4296479159693E-01
(PID.TID 0000.0001) %MON dynstat_uvel_min             =  -3.8630717450090E-01
(PID.TID 0000.0001) %MON dynstat_uvel_mean            =   1.2785762503341E-02
(PID.TID 0000.0001) %MON dynstat_uvel_sd              =   3.8748701211275E-02
(PID.TID 0000.0001) %MON dynstat_uvel_del2            =   6.1902224809935E-04
(PID.TID 0000.0001) %MON dynstat_vvel_max             =   2.2969570536770E-02
(PID.TID 0000.0001) %MON dynstat_vvel_min             =  -2.2969570536746E-02
(PID.TID 0000.0001) %MON dynstat_vvel_mean            =   1.6048507388874E-15
(PID.TID 0000.0001) %MON dynstat_vvel_sd              =   1.5583167373775E-03
(PID.TID 0000.0001) %MON dynstat_vvel_del2            =   7.3013943052923E-05
(PID.TID 0000.0001) %MON dynstat_wvel_max             =   1.6982783594870E-06
(PID.TID 0000.0001) %MON dynstat_wvel_min             =  -8.2752779635069E-07
(PID.TID 0000.0001) %MON dynstat_wvel_mean            =  -1.4641344523839E-23
(PID.TID 0000.0001) %MON dynstat_wvel_sd              =   3.0617323471468E-07
(PID.TID 0000.0001) %MON dynstat_wvel_del2            =   3.6913784072228E-08
(PID.TID 0000.0001) %MON dynstat_theta_max            =   2.6666663937898E+01
(PID.TID 0000.0001) %MON dynstat_theta_min            =  -9.3077192464455E-01
(PID.TID 0000.0001) %MON dynstat_theta_mean           =   2.2241563541309E+00
(PID.TID 0000.0001) %MON dynstat_theta_sd             =   3.9276854599468E+00
(PID.TID 0000.0001) %MON dynstat_theta_del2           =   4.1685350116699E-02
(PID.TID 0000.0001) %MON dynstat_salt_max             =   3.4700000000000E+01
(PID.TID 0000.0001) %MON dynstat_salt_min             =   3.4700000000000E+01
(PID.TID 0000.0001) %MON dynstat_salt_mean            =   3.4700000000000E+01
(PID.TID 0000.0001) %MON dynstat_salt_sd              =   7.1054273576010E-15
(PID.TID 0000.0001) %MON dynstat_salt_del2            =   0.0000000000000E+00
(PID.TID 0000.0001) %MON extforcing_qnet_max          =   0.0000000000000E+00
(PID.TID 0000.0001) %MON extforcing_qnet_min          =   0.0000000000000E+00
(PID.TID 0000.0001) %MON extforcing_qnet_mean         =   0.0000000000000E+00
(PID.TID 0000.0001) %MON extforcing_qnet_sd           =   0.0000000000000E+00
(PID.TID 0000.0001) %MON extforcing_qnet_del2         =   0.0000000000000E+00
(PID.TID 0000.0001) %MON extforcing_qsw_max           =   0.0000000000000E+00
(PID.TID 0000.0001) %MON extforcing_qsw_min           =   0.0000000000000E+00
(PID.TID 0000.0001) %MON extforcing_qsw_mean          =   0.0000000000000E+00
(PID.TID 0000.0001) %MON extforcing_qsw_sd            =   0.0000000000000E+00
(PID.TID 0000.0001) %MON extforcing_qsw_del2          =   0.0000000000000E+00
(PID.TID 0000.0001) %MON extforcing_empmr_max         =   0.0000000000000E+00
(PID.TID 0000.0001) %MON extforcing_empmr_min         =   0.0000000000000E+00
(PID.TID 0000.0001) %MON extforcing_empmr_mean        =   0.0000000000000E+00
(PID.TID 0000.0001) %MON extforcing_empmr_sd          =   0.0000000000000E+00
(PID.TID 0000.0001) %MON extforcing_empmr_del2        =   0.0000000000000E+00
(PID.TID 0000.0001) %MON extforcing_fu_max            =   9.9978540300125E-02
(PID.TID 0000.0001) %MON extforcing_fu_min            =  -4.5606770888425E-02
(PID.TID 0000.0001) %MON extforcing_fu_mean           =   5.5244812507656E-03
(PID.TID 0000.0001) %MON extforcing_fu_sd             =   4.8553815046242E-02
(PID.TID 0000.0001) %MON extforcing_fu_del2           =   1.2538564105396E-03
(PID.TID 0000.0001) %MON extforcing_fv_max            =   0.0000000000000E+00
(PID.TID 0000.0001) %MON extforcing_fv_min            =   0.0000000000000E+00
(PID.TID 0000.0001) %MON extforcing_fv_mean           =   0.0000000000000E+00
(PID.TID 0000.0001) %MON extforcing_fv_sd             =   0.0000000000000E+00
(PID.TID 0000.0001) %MON extforcing_fv_del2           =   0.0000000000000E+00
(PID.TID 0000.0001) %MON advcfl_uvel_max              =   1.0010535478266E-01
(PID.TID 0000.0001) %MON advcfl_vvel_max              =   5.9501588902302E-03
(PID.TID 0000.0001) %MON advcfl_wvel_max              =   2.4455208376613E-03
(PID.TID 0000.0001) %MON advcfl_W_hf_max              =   7.3365625129840E-03
(PID.TID 0000.0001) %MON pe_b_mean                    =   2.5647479414373E-03
(PID.TID 0000.0001) %MON ke_max                       =   7.4645589526600E-02
(PID.TID 0000.0001) %MON ke_mean                      =   8.3377274951301E-04
(PID.TID 0000.0001) %MON ke_vol                       =   2.1823819113454E+16
(PID.TID 0000.0001) %MON vort_r_min                   =  -1.7704889120245E-07
(PID.TID 0000.0001) %MON vort_r_max                   =   1.7704889120227E-07
(PID.TID 0000.0001) %MON vort_a_mean                  =  -8.3583763668379E-21
(PID.TID 0000.0001) %MON vort_a_sd                    =   8.3264754575650E-05
(PID.TID 0000.0001) %MON vort_p_mean                  =  -8.4104832504555E-21
(PID.TID 0000.0001) %MON vort_p_sd                    =   8.6550981803266E-05
(PID.TID 0000.0001) %MON surfExpan_theta_mean         =   2.8681647003477E-06
(PID.TID 0000.0001) %MON surfExpan_salt_mean          =   4.4381575587886E-22
(PID.TID 0000.0001) // =======================================================
(PID.TID 0000.0001) // End MONITOR dynamic field statistics
(PID.TID 0000.0001) // =======================================================
 Computing Diagnostic #  30  UVEL         Counter:      20   Parms: UU   031MR      
           Vector  Mate for  UVEL         Diagnostic #  31  VVEL     exists 
 Computing Diagnostic #  31  VVEL         Counter:      20   Parms: VV   030MR      
           Vector  Mate for  VVEL         Diagnostic #  30  UVEL     exists 
 Computing Diagnostic #  32  WVEL         Counter:      20   Parms: WM      LR      
 Computing Diagnostic #  65  PHIHYD       Counter:      20   Parms: SM      MR      
 Computing Diagnostic #  44  VVELMASS     Counter:      20   Parms: VV   043MR      
           Vector  Mate for  VVELMASS     Diagnostic #  43  UVELMASS not enabled
 Computing Diagnostic #  26  THETA        Counter:      20   Parms: SM      MR      
 Computing Diagnostic #  47  VTHMASS      Counter:      20   Parms: VV   046MR      
           Vector  Mate for  VTHMASS      Diagnostic #  46  UTHMASS  not enabled
 Computing Diagnostic #  48  WTHMASS      Counter:      20   Parms: WM      LR      
 Computing Diagnostic #  33  THETASQ      Counter:      20   Parms: SM      MR      
 Computing Diagnostic #  36  UVELSQ       Counter:      20   Parms: UU   037MR      
           Vector  Mate for  UVELSQ       Diagnostic #  37  VVELSQ   not enabled
 Computing Diagnostic #  40  UV_VEL_Z     Counter:      20   Parms: UZ   040MR      
           Vector  Mate for  UV_VEL_Z     Diagnostic #  40  UV_VEL_Z exists 
 Computing Diagnostic #  41  WU_VEL       Counter:      20   Parms: WU      LR      
 Computing Diagnostic #  69  DRHODR       Counter:      10   Parms: SM      LR      
 Computing Diagnostic #  60  RHOAnoma     Counter:      10   Parms: SM      MR      
 Computing Diagnostic # 177  GM_PsiY      Counter:      10   Parms: VV   176LR      
           Vector  Mate for  GM_PsiY      Diagnostic # 176  GM_PsiX  not enabled
 Computing Diagnostic # 170  GM_Kvy       Counter:      10   Parms: VV P 169MR      
           Vector  Mate for  GM_Kvy       Diagnostic # 169  GM_Kux   not enabled
 Computing Diagnostic # 172  GM_Kvz       Counter:      10   Parms: VV   171MR      
           Vector  Mate for  GM_Kvz       Diagnostic # 171  GM_Kuz   not enabled
 Computing Diagnostic # 174  GM_Kwy       Counter:      10   Parms: VM   173LR      
           Vector  Mate for  GM_Kwy       Diagnostic # 173  GM_Kwx   not enabled
 Computing Diagnostic # 175  GM_Kwz       Counter:      10   Parms: WM P    LR      
 Computing Diagnostic #  94  ADVy_TH      Counter:      20   Parms: VV   093MR      
           Vector  Mate for  ADVy_TH      Diagnostic #  93  ADVx_TH  not enabled
 Computing Diagnostic #  92  ADVr_TH      Counter:      20   Parms: WM      LR      
 Computing Diagnostic #  97  DFyE_TH      Counter:      20   Parms: VV   096MR      
           Vector  Mate for  DFyE_TH      Diagnostic #  96  DFxE_TH  not enabled
 Computing Diagnostic #  95  DFrE_TH      Counter:      20   Parms: WM      LR      
 Computing Diagnostic #  98  DFrI_TH      Counter:      20   Parms: WM      LR      
(PID.TID 0000.0001) %CHECKPOINT     36020 ckptA
(PID.TID 0000.0001)   Seconds in section "ALL                    [THE_MODEL_MAIN]":
(PID.TID 0000.0001)           User time:  7.34288279
(PID.TID 0000.0001)         System time:  0.148978001
(PID.TID 0000.0001)     Wall clock time:  7.77153993
(PID.TID 0000.0001)          No. starts: 1
(PID.TID 0000.0001)           No. stops: 1
(PID.TID 0000.0001)   Seconds in section "INITIALISE_FIXED       [THE_MODEL_MAIN]":
(PID.TID 0000.0001)           User time:  1.65774803
(PID.TID 0000.0001)         System time:  0.0449930001
(PID.TID 0000.0001)     Wall clock time:  1.90344787
(PID.TID 0000.0001)          No. starts: 1
(PID.TID 0000.0001)           No. stops: 1
(PID.TID 0000.0001)   Seconds in section "THE_MAIN_LOOP          [THE_MODEL_MAIN]":
(PID.TID 0000.0001)           User time:  5.64914119
(PID.TID 0000.0001)         System time:  0.0359950028
(PID.TID 0000.0001)     Wall clock time:  5.71481109
(PID.TID 0000.0001)          No. starts: 1
(PID.TID 0000.0001)           No. stops: 1
(PID.TID 0000.0001)   Seconds in section "INITIALISE_VARIA    [THE_MAIN_LOOP]":
(PID.TID 0000.0001)           User time:  0.0469930172
(PID.TID 0000.0001)         System time:  0.020996999
(PID.TID 0000.0001)     Wall clock time:  0.0974748135
(PID.TID 0000.0001)          No. starts: 1
(PID.TID 0000.0001)           No. stops: 1
(PID.TID 0000.0001)   Seconds in section "MAIN LOOP           [THE_MAIN_LOOP]":
(PID.TID 0000.0001)           User time:  5.42617524
(PID.TID 0000.0001)         System time:  0.0149980038
(PID.TID 0000.0001)     Wall clock time:  5.44198394
(PID.TID 0000.0001)          No. starts: 1
(PID.TID 0000.0001)           No. stops: 1
(PID.TID 0000.0001)   Seconds in section "FORWARD_STEP        [THE_MAIN_LOOP]":
(PID.TID 0000.0001)           User time:  5.42617524
(PID.TID 0000.0001)         System time:  0.0149980038
(PID.TID 0000.0001)     Wall clock time:  5.44125509
(PID.TID 0000.0001)          No. starts: 20
(PID.TID 0000.0001)           No. stops: 20
(PID.TID 0000.0001)   Seconds in section "DO_STATEVARS_DIAGS  [FORWARD_STEP]":
(PID.TID 0000.0001)           User time:  0.0409932137
(PID.TID 0000.0001)         System time:  0.
(PID.TID 0000.0001)     Wall clock time:  0.0401470661
(PID.TID 0000.0001)          No. starts: 60
(PID.TID 0000.0001)           No. stops: 60
(PID.TID 0000.0001)   Seconds in section "LOAD_FIELDS_DRIVER  [FORWARD_STEP]":
(PID.TID 0000.0001)           User time:  0.
(PID.TID 0000.0001)         System time:  0.
(PID.TID 0000.0001)     Wall clock time:  0.00204110146
(PID.TID 0000.0001)          No. starts: 20
(PID.TID 0000.0001)           No. stops: 20
(PID.TID 0000.0001)   Seconds in section "EXTERNAL_FLDS_LOAD [LOAD_FLDS_DRIVER]":
(PID.TID 0000.0001)           User time:  0.
(PID.TID 0000.0001)         System time:  0.
(PID.TID 0000.0001)     Wall clock time:  0.000691652298
(PID.TID 0000.0001)          No. starts: 20
(PID.TID 0000.0001)           No. stops: 20
(PID.TID 0000.0001)   Seconds in section "DO_ATMOSPHERIC_PHYS [FORWARD_STEP]":
(PID.TID 0000.0001)           User time:  0.000998973846
(PID.TID 0000.0001)         System time:  0.
(PID.TID 0000.0001)     Wall clock time:  0.000687122345
(PID.TID 0000.0001)          No. starts: 20
(PID.TID 0000.0001)           No. stops: 20
(PID.TID 0000.0001)   Seconds in section "DO_OCEANIC_PHYS     [FORWARD_STEP]":
(PID.TID 0000.0001)           User time:  0.316952825
(PID.TID 0000.0001)         System time:  0.00100000203
(PID.TID 0000.0001)     Wall clock time:  0.315560102
(PID.TID 0000.0001)          No. starts: 20
(PID.TID 0000.0001)           No. stops: 20
(PID.TID 0000.0001)   Seconds in section "DYNAMICS            [FORWARD_STEP]":
(PID.TID 0000.0001)           User time:  0.58291173
(PID.TID 0000.0001)         System time:  0.
(PID.TID 0000.0001)     Wall clock time:  0.586598158
(PID.TID 0000.0001)          No. starts: 20
(PID.TID 0000.0001)           No. stops: 20
(PID.TID 0000.0001)   Seconds in section "SOLVE_FOR_PRESSURE  [FORWARD_STEP]":
(PID.TID 0000.0001)           User time:  0.0879856348
(PID.TID 0000.0001)         System time:  0.
(PID.TID 0000.0001)     Wall clock time:  0.0884988308
(PID.TID 0000.0001)          No. starts: 20
(PID.TID 0000.0001)           No. stops: 20
(PID.TID 0000.0001)   Seconds in section "MOM_CORRECTION_STEP [FORWARD_STEP]":
(PID.TID 0000.0001)           User time:  0.0289969444
(PID.TID 0000.0001)         System time:  0.
(PID.TID 0000.0001)     Wall clock time:  0.0251536369
(PID.TID 0000.0001)          No. starts: 20
(PID.TID 0000.0001)           No. stops: 20
(PID.TID 0000.0001)   Seconds in section "UPDATE_ETAH         [FORWARD_STEP]":
(PID.TID 0000.0001)           User time:  0.
(PID.TID 0000.0001)         System time:  0.
(PID.TID 0000.0001)     Wall clock time:  0.00130963326
(PID.TID 0000.0001)          No. starts: 20
(PID.TID 0000.0001)           No. stops: 20
(PID.TID 0000.0001)   Seconds in section "BLOCKING_EXCHANGES  [FORWARD_STEP]":
(PID.TID 0000.0001)           User time:  0.108978868
(PID.TID 0000.0001)         System time:  0.
(PID.TID 0000.0001)     Wall clock time:  0.110815287
(PID.TID 0000.0001)          No. starts: 40
(PID.TID 0000.0001)           No. stops: 40
(PID.TID 0000.0001)   Seconds in section "THERMODYNAMICS      [FORWARD_STEP]":
(PID.TID 0000.0001)           User time:  0.457932115
(PID.TID 0000.0001)         System time:  0.
(PID.TID 0000.0001)     Wall clock time:  0.45585084
(PID.TID 0000.0001)          No. starts: 20
(PID.TID 0000.0001)           No. stops: 20
(PID.TID 0000.0001)   Seconds in section "TRC_CORRECTION_STEP [FORWARD_STEP]":
(PID.TID 0000.0001)           User time:  0.00400018692
(PID.TID 0000.0001)         System time:  0.
(PID.TID 0000.0001)     Wall clock time:  0.00511431694
(PID.TID 0000.0001)          No. starts: 20
(PID.TID 0000.0001)           No. stops: 20
(PID.TID 0000.0001)   Seconds in section "DO_STATEVARS_TAVE   [FORWARD_STEP]":
(PID.TID 0000.0001)           User time:  0.040995717
(PID.TID 0000.0001)         System time:  0.
(PID.TID 0000.0001)     Wall clock time:  0.040872097
(PID.TID 0000.0001)          No. starts: 20
(PID.TID 0000.0001)           No. stops: 20
(PID.TID 0000.0001)   Seconds in section "MONITOR             [FORWARD_STEP]":
(PID.TID 0000.0001)           User time:  0.0969843864
(PID.TID 0000.0001)         System time:  0.000999994576
(PID.TID 0000.0001)     Wall clock time:  0.0982778072
(PID.TID 0000.0001)          No. starts: 20
(PID.TID 0000.0001)           No. stops: 20
(PID.TID 0000.0001)   Seconds in section "DO_THE_MODEL_IO     [FORWARD_STEP]":
(PID.TID 0000.0001)           User time:  3.64744687
(PID.TID 0000.0001)         System time:  0.00799800456
(PID.TID 0000.0001)     Wall clock time:  3.65593028
(PID.TID 0000.0001)          No. starts: 20
(PID.TID 0000.0001)           No. stops: 20
(PID.TID 0000.0001)   Seconds in section "DO_WRITE_PICKUP     [FORWARD_STEP]":
(PID.TID 0000.0001)           User time:  0.00199985504
(PID.TID 0000.0001)         System time:  0.00300000608
(PID.TID 0000.0001)     Wall clock time:  0.000738859177
(PID.TID 0000.0001)          No. starts: 20
(PID.TID 0000.0001)           No. stops: 20
(PID.TID 0000.0001)   Seconds in section "DO_WRITE_PICKUP        [THE_MODEL_MAIN]":
(PID.TID 0000.0001)           User time:  0.035993576
(PID.TID 0000.0001)         System time:  0.0679899976
(PID.TID 0000.0001)     Wall clock time:  0.153115988
(PID.TID 0000.0001)          No. starts: 1
(PID.TID 0000.0001)           No. stops: 1
(PID.TID 0000.0001) // ======================================================
(PID.TID 0000.0001) // Tile <-> Tile communication statistics
(PID.TID 0000.0001) // ======================================================
(PID.TID 0000.0001) // o Tile number: 000001
(PID.TID 0000.0001) //         No. X exchanges =              0
(PID.TID 0000.0001) //            Max. X spins =              0
(PID.TID 0000.0001) //            Min. X spins =     1000000000
(PID.TID 0000.0001) //          Total. X spins =              0
(PID.TID 0000.0001) //            Avg. X spins =       0.00E+00
(PID.TID 0000.0001) //         No. Y exchanges =              0
(PID.TID 0000.0001) //            Max. Y spins =              0
(PID.TID 0000.0001) //            Min. Y spins =     1000000000
(PID.TID 0000.0001) //          Total. Y spins =              0
(PID.TID 0000.0001) //            Avg. Y spins =       0.00E+00
(PID.TID 0000.0001) // o Tile number: 000002
(PID.TID 0000.0001) //         No. X exchanges =              0
(PID.TID 0000.0001) //            Max. X spins =              0
(PID.TID 0000.0001) //            Min. X spins =     1000000000
(PID.TID 0000.0001) //          Total. X spins =              0
(PID.TID 0000.0001) //            Avg. X spins =       0.00E+00
(PID.TID 0000.0001) //         No. Y exchanges =              0
(PID.TID 0000.0001) //            Max. Y spins =              0
(PID.TID 0000.0001) //            Min. Y spins =     1000000000
(PID.TID 0000.0001) //          Total. Y spins =              0
(PID.TID 0000.0001) //            Avg. Y spins =       0.00E+00
(PID.TID 0000.0001) // o Tile number: 000003
(PID.TID 0000.0001) //         No. X exchanges =              0
(PID.TID 0000.0001) //            Max. X spins =              0
(PID.TID 0000.0001) //            Min. X spins =     1000000000
(PID.TID 0000.0001) //          Total. X spins =              0
(PID.TID 0000.0001) //            Avg. X spins =       0.00E+00
(PID.TID 0000.0001) //         No. Y exchanges =              0
(PID.TID 0000.0001) //            Max. Y spins =              0
(PID.TID 0000.0001) //            Min. Y spins =     1000000000
(PID.TID 0000.0001) //          Total. Y spins =              0
(PID.TID 0000.0001) //            Avg. Y spins =       0.00E+00
(PID.TID 0000.0001) // o Tile number: 000004
(PID.TID 0000.0001) //         No. X exchanges =              0
(PID.TID 0000.0001) //            Max. X spins =              0
(PID.TID 0000.0001) //            Min. X spins =     1000000000
(PID.TID 0000.0001) //          Total. X spins =              0
(PID.TID 0000.0001) //            Avg. X spins =       0.00E+00
(PID.TID 0000.0001) //         No. Y exchanges =              0
(PID.TID 0000.0001) //            Max. Y spins =              0
(PID.TID 0000.0001) //            Min. Y spins =     1000000000
(PID.TID 0000.0001) //          Total. Y spins =              0
(PID.TID 0000.0001) //            Avg. Y spins =       0.00E+00
(PID.TID 0000.0001) // o Thread number: 000001
(PID.TID 0000.0001) //            No. barriers =          19064
(PID.TID 0000.0001) //      Max. barrier spins =              1
(PID.TID 0000.0001) //      Min. barrier spins =              1
(PID.TID 0000.0001) //     Total barrier spins =          19064
(PID.TID 0000.0001) //      Avg. barrier spins =       1.00E+00
