(PID.TID 0000.0001) 
(PID.TID 0000.0001) // ======================================================
(PID.TID 0000.0001) //                      MITgcm UV
(PID.TID 0000.0001) //                      =========
(PID.TID 0000.0001) // ======================================================
(PID.TID 0000.0001) // execution environment starting up...
(PID.TID 0000.0001) // Run starting Wed Apr  1 14:19:48 1998
(PID.TID 0000.0001) // on melville.lcs.mit.edu
(PID.TID 0000.0001) // account cnh
(PID.TID 0000.0001) // MITgcm UV Release: $Name:  $
(PID.TID 0000.0001) 
(PID.TID 0000.0001) // =======================================================
(PID.TID 0000.0001) // Execution Environment parameter file "eedata"
(PID.TID 0000.0001) // =======================================================
(PID.TID 0000.0001) ># Example "eedata" file
(PID.TID 0000.0001) ># Lines beginning "#" are comments
(PID.TID 0000.0001) ># nTx - No. threads per process in X
(PID.TID 0000.0001) ># nTy - No. threads per process in Y
(PID.TID 0000.0001) > &EEPARMS
(PID.TID 0000.0001) > nTx=1,nTy=1
(PID.TID 0000.0001) > &
(PID.TID 0000.0001) ># Note: Some systems use & as the
(PID.TID 0000.0001) ># namelist terminator. Other systems
(PID.TID 0000.0001) ># use a / character (as shown here).
(PID.TID 0000.0001) 
(PID.TID 0000.0001) // =======================================================
(PID.TID 0000.0001) // Computational Grid Specification ( see files "SIZE.h" )
(PID.TID 0000.0001) //                                  ( and "eedata"       )
(PID.TID 0000.0001) // =======================================================
(PID.TID 0000.0001)      nPx =    1 ; /* No. processes in X */
(PID.TID 0000.0001)      nPy =    1 ; /* No. processes in Y */
(PID.TID 0000.0001)      nSx =    1 ; /* No. tiles in X per process */
(PID.TID 0000.0001)      nSy =    4 ; /* No. tiles in Y per process */
(PID.TID 0000.0001)      sNx =    1 ; /* Tile size in X */
(PID.TID 0000.0001)      sNy =   14 ; /* Tile size in Y */
(PID.TID 0000.0001)      OLx =    3 ; /* Tile overlap distance in X */
(PID.TID 0000.0001)      OLy =    3 ; /* Tile overlap distance in Y */
(PID.TID 0000.0001)      nTx =    1 ; /* No. threads in X per process */
(PID.TID 0000.0001)      nTy =    1 ; /* No. threads in Y per process */
(PID.TID 0000.0001)       Nr =   15 ; /* No. levels in the vertical   */
(PID.TID 0000.0001)       nX =    1 ; /* Total domain size in X ( = nPx*nSx*sNx ) */
(PID.TID 0000.0001)       nY =   56 ; /* Total domain size in Y ( = nPy*nSy*sNy ) */
(PID.TID 0000.0001)   nTiles =    4 ; /* Total no. tiles per process ( = nSx*nSy ) */
(PID.TID 0000.0001)   nProcs =    1 ; /* Total no. processes ( = nPx*nPy ) */
(PID.TID 0000.0001) nThreads =    1 ; /* Total no. threads per process ( = nTx*nTy ) */
(PID.TID 0000.0001) usingMPI =    F ; /* Flag used to control whether MPI is in use */
(PID.TID 0000.0001)                   /*  note: To execute a program with MPI calls */
(PID.TID 0000.0001)                   /*  it must be launched appropriately e.g     */
(PID.TID 0000.0001)                   /*  "mpirun -np 64 ......"                    */
(PID.TID 0000.0001) 
(PID.TID 0000.0001) // ======================================================
(PID.TID 0000.0001) // Mapping of tiles to threads
(PID.TID 0000.0001) // ======================================================
(PID.TID 0000.0001) // -o- Thread   1, tiles (   1:   1,   1:   4)
(PID.TID 0000.0001) 
(PID.TID 0000.0001) // ======================================================
(PID.TID 0000.0001) // Tile <-> Tile connectvity table
(PID.TID 0000.0001) // ======================================================
(PID.TID 0000.0001) // Tile number: 000001 (process no. = 000001)
(PID.TID 0000.0001) //        WEST: Tile = 000001, Process = 000001, Comm = put
(PID.TID 0000.0001) //                bi = 000001, bj = 000001
(PID.TID 0000.0001) //        EAST: Tile = 000001, Process = 000001, Comm = put
(PID.TID 0000.0001) //                bi = 000001, bj = 000001
(PID.TID 0000.0001) //       SOUTH: Tile = 000004, Process = 000001, Comm = put
(PID.TID 0000.0001) //                bi = 000001, bj = 000004
(PID.TID 0000.0001) //       NORTH: Tile = 000002, Process = 000001, Comm = put
(PID.TID 0000.0001) //                bi = 000001, bj = 000002
(PID.TID 0000.0001) // Tile number: 000002 (process no. = 000001)
(PID.TID 0000.0001) //        WEST: Tile = 000002, Process = 000001, Comm = put
(PID.TID 0000.0001) //                bi = 000001, bj = 000002
(PID.TID 0000.0001) //        EAST: Tile = 000002, Process = 000001, Comm = put
(PID.TID 0000.0001) //                bi = 000001, bj = 000002
(PID.TID 0000.0001) //       SOUTH: Tile = 000001, Process = 000001, Comm = put
(PID.TID 0000.0001) //                bi = 000001, bj = 000001
(PID.TID 0000.0001) //       NORTH: Tile = 000003, Process = 000001, Comm = put
(PID.TID 0000.0001) //                bi = 000001, bj = 000003
(PID.TID 0000.0001) // Tile number: 000003 (process no. = 000001)
(PID.TID 0000.0001) //        WEST: Tile = 000003, Process = 000001, Comm = put
(PID.TID 0000.0001) //                bi = 000001, bj = 000003
(PID.TID 0000.0001) //        EAST: Tile = 000003, Process = 000001, Comm = put
(PID.TID 0000.0001) //                bi = 000001, bj = 000003
(PID.TID 0000.0001) //       SOUTH: Tile = 000002, Process = 000001, Comm = put
(PID.TID 0000.0001) //                bi = 000001, bj = 000002
(PID.TID 0000.0001) //       NORTH: Tile = 000004, Process = 000001, Comm = put
(PID.TID 0000.0001) //                bi = 000001, bj = 000004
(PID.TID 0000.0001) // Tile number: 000004 (process no. = 000001)
(PID.TID 0000.0001) //        WEST: Tile = 000004, Process = 000001, Comm = put
(PID.TID 0000.0001) //                bi = 000001, bj = 000004
(PID.TID 0000.0001) //        EAST: Tile = 000004, Process = 000001, Comm = put
(PID.TID 0000.0001) //                bi = 000001, bj = 000004
(PID.TID 0000.0001) //       SOUTH: Tile = 000003, Process = 000001, Comm = put
(PID.TID 0000.0001) //                bi = 000001, bj = 000003
(PID.TID 0000.0001) //       NORTH: Tile = 000001, Process = 000001, Comm = put
(PID.TID 0000.0001) //                bi = 000001, bj = 000001
(PID.TID 0000.0001) 
(PID.TID 0000.0001) // =======================================================
(PID.TID 0000.0001) // Model parameter file "data"
(PID.TID 0000.0001) // =======================================================
(PID.TID 0000.0001) ># ====================
(PID.TID 0000.0001) ># | Model parameters |
(PID.TID 0000.0001) ># ====================
(PID.TID 0000.0001) >#
(PID.TID 0000.0001) ># Continuous equation parameters
(PID.TID 0000.0001) > &PARM01
(PID.TID 0000.0001) > tRef= 18.8, 16.3, 13.1, 10.4, 8.1, 6.0, 4.5,
(PID.TID 0000.0001) >      3.4, 2.7, 2.2, 1.8, 1.5, 1.2, 1.0, 0.9,
(PID.TID 0000.0001) > sRef= 15*34.7,
(PID.TID 0000.0001) > cosPower=1.,
(PID.TID 0000.0001) > viscAz=1.E-3,
(PID.TID 0000.0001) > viscAh=12.E5,
(PID.TID 0000.0001) > no_slip_sides=.FALSE.,
(PID.TID 0000.0001) > no_slip_bottom=.TRUE.,
(PID.TID 0000.0001) > bottomDragLinear=1.E-3,
(PID.TID 0000.0001) >#diffK4T=2.E12,
(PID.TID 0000.0001) > diffKhT=0.E3,
(PID.TID 0000.0001) > diffKzT=1.E-5,
(PID.TID 0000.0001) > ivdc_kappa=100.,
(PID.TID 0000.0001) > implicitDiffusion=.TRUE.,
(PID.TID 0000.0001) > eosType='LINEAR',
(PID.TID 0000.0001) > tAlpha=2.E-4,
(PID.TID 0000.0001) > sBeta =0.E-4,
(PID.TID 0000.0001) > saltStepping=.FALSE.,
(PID.TID 0000.0001) > gravity=9.81,
(PID.TID 0000.0001) > rhonil=1035.,
(PID.TID 0000.0001) > implicitFreeSurface=.TRUE.,
(PID.TID 0000.0001) > exactConserv=.TRUE.,
(PID.TID 0000.0001) > staggerTimeStep=.TRUE.,
(PID.TID 0000.0001) > useCDscheme=.TRUE.,
(PID.TID 0000.0001) > readBinaryPrec=64,
(PID.TID 0000.0001) > tempAdvScheme=77,
(PID.TID 0000.0001) > &
(PID.TID 0000.0001) >
(PID.TID 0000.0001) ># Elliptic solver parameters
(PID.TID 0000.0001) > &PARM02
(PID.TID 0000.0001) > cg2dMaxIters=1000,
(PID.TID 0000.0001) >#cg2dTargetResidual=1.E-13,
(PID.TID 0000.0001) > cg2dTargetResWunit=1.E-17,
(PID.TID 0000.0001) > &
(PID.TID 0000.0001) >
(PID.TID 0000.0001) ># Time stepping parameters
(PID.TID 0000.0001) > &PARM03
(PID.TID 0000.0001) > niter0=36000,
(PID.TID 0000.0001) > nTimeSteps=20,
(PID.TID 0000.0001) >#endTime=3110400000.,
(PID.TID 0000.0001) > deltaTmom=1200.0,
(PID.TID 0000.0001) > deltaTfreesurf=3600.0,
(PID.TID 0000.0001) > deltaTtracer=86400.0,
(PID.TID 0000.0001) > deltaTClock =86400.0,
(PID.TID 0000.0001) > abEps=0.1,
(PID.TID 0000.0001) > tauCD=321428.,
(PID.TID 0000.0001) > tauThetaClimRelax=2592000.0,
(PID.TID 0000.0001) > chkptFreq=0.0,
(PID.TID 0000.0001) > pChkptFreq=3110400000.0,
(PID.TID 0000.0001) > taveFreq=1555200000.0,
(PID.TID 0000.0001) > dumpFreq=1555200000.0,
(PID.TID 0000.0001) > diagFreq=1555200000.0,
(PID.TID 0000.0001) >#monitorFreq=31104000.0,
(PID.TID 0000.0001) > monitorFreq=1.0,
(PID.TID 0000.0001) > &
(PID.TID 0000.0001) >
(PID.TID 0000.0001) ># Gridding parameters
(PID.TID 0000.0001) > &PARM04
(PID.TID 0000.0001) > usingCartesianGrid=.FALSE.,
(PID.TID 0000.0001) > usingSphericalPolarGrid=.TRUE.,
(PID.TID 0000.0001) > delRc= 20.,  60.,  85., 120., 165., 215., 265., 315.,
(PID.TID 0000.0001) >       365., 415., 465., 515., 565., 615., 665., 350.,
(PID.TID 0000.0001) > phiMin=-84.,
(PID.TID 0000.0001) > delY=56*3,
(PID.TID 0000.0001) > delX=1*3,
(PID.TID 0000.0001) > &
(PID.TID 0000.0001) >
(PID.TID 0000.0001) ># Input datasets
(PID.TID 0000.0001) > &PARM05
(PID.TID 0000.0001) > bathyFile='topo_sl.bin',
(PID.TID 0000.0001) > zonalWindFile='taux_sl.bin',
(PID.TID 0000.0001) > thetaClimFile='sst_sl.bin',
(PID.TID 0000.0001) > &
(PID.TID 0000.0001) 
(PID.TID 0000.0001) S/R INI_PARMS ; read PARM01 : OK
(PID.TID 0000.0001) S/R INI_PARMS ; read PARM02 : OK
(PID.TID 0000.0001) S/R INI_PARMS ; read PARM03 : OK
(PID.TID 0000.0001) S/R INI_PARMS ; read PARM04 : OK
(PID.TID 0000.0001) S/R INI_PARMS ; read PARM05 : OK
(PID.TID 0000.0001) %MON XC_max                       =   1.5000000000000E+00
(PID.TID 0000.0001) %MON XC_min                       =   1.5000000000000E+00
(PID.TID 0000.0001) %MON XC_mean                      =   1.5000000000000E+00
(PID.TID 0000.0001) %MON XC_sd                        =   0.0000000000000E+00
(PID.TID 0000.0001) %MON XG_max                       =   0.0000000000000E+00
(PID.TID 0000.0001) %MON XG_min                       =   0.0000000000000E+00
(PID.TID 0000.0001) %MON XG_mean                      =   0.0000000000000E+00
(PID.TID 0000.0001) %MON XG_sd                        =   0.0000000000000E+00
(PID.TID 0000.0001) %MON DXC_max                      =   3.3341812682592E+05
(PID.TID 0000.0001) %MON DXC_min                      =   4.3534716771864E+04
(PID.TID 0000.0001) %MON DXC_mean                     =   2.2627957857351E+05
(PID.TID 0000.0001) %MON DXC_sd                       =   9.1462046601761E+04
(PID.TID 0000.0001) %MON DXF_max                      =   3.3341812682592E+05
(PID.TID 0000.0001) %MON DXF_min                      =   4.3534716771864E+04
(PID.TID 0000.0001) %MON DXF_mean                     =   2.2627957857351E+05
(PID.TID 0000.0001) %MON DXF_sd                       =   9.1462046601761E+04
(PID.TID 0000.0001) %MON DXG_max                      =   3.3353242005612E+05
(PID.TID 0000.0001) %MON DXG_min                      =   3.4863631318407E+04
(PID.TID 0000.0001) %MON DXG_mean                     =   2.2620203821339E+05
(PID.TID 0000.0001) %MON DXG_sd                       =   9.1624145029333E+04
(PID.TID 0000.0001) %MON DXV_max                      =   3.3353242005612E+05
(PID.TID 0000.0001) %MON DXV_min                      =   3.4863631318407E+04
(PID.TID 0000.0001) %MON DXV_mean                     =   2.2620203821339E+05
(PID.TID 0000.0001) %MON DXV_sd                       =   9.1624145029333E+04
(PID.TID 0000.0001) %MON YC_max                       =   8.2500000000000E+01
(PID.TID 0000.0001) %MON YC_min                       =  -8.2500000000000E+01
(PID.TID 0000.0001) %MON YC_mean                      =   0.0000000000000E+00
(PID.TID 0000.0001) %MON YC_sd                        =   4.8489689625734E+01
(PID.TID 0000.0001) %MON YG_max                       =   8.1000000000000E+01
(PID.TID 0000.0001) %MON YG_min                       =  -8.4000000000000E+01
(PID.TID 0000.0001) %MON YG_mean                      =  -1.5272727272727E+00
(PID.TID 0000.0001) %MON YG_sd                        =   4.8928093638598E+01
(PID.TID 0000.0001) %MON DYC_max                      =   3.3353242005612E+05
(PID.TID 0000.0001) %MON DYC_min                      =   3.3353242005612E+05
(PID.TID 0000.0001) %MON DYC_mean                     =   3.3353242005612E+05
(PID.TID 0000.0001) %MON DYC_sd                       =   2.3283064365387E-10
(PID.TID 0000.0001) %MON DYF_max                      =   3.3353242005612E+05
(PID.TID 0000.0001) %MON DYF_min                      =   3.3353242005612E+05
(PID.TID 0000.0001) %MON DYF_mean                     =   3.3353242005612E+05
(PID.TID 0000.0001) %MON DYF_sd                       =   2.3283064365387E-10
(PID.TID 0000.0001) %MON DYG_max                      =   3.3353242005612E+05
(PID.TID 0000.0001) %MON DYG_min                      =   3.3353242005612E+05
(PID.TID 0000.0001) %MON DYG_mean                     =   3.3353242005612E+05
(PID.TID 0000.0001) %MON DYG_sd                       =   2.3283064365387E-10
(PID.TID 0000.0001) %MON DYU_max                      =   3.3353242005612E+05
(PID.TID 0000.0001) %MON DYU_min                      =   3.3353242005612E+05
(PID.TID 0000.0001) %MON DYU_mean                     =   3.3353242005612E+05
(PID.TID 0000.0001) %MON DYU_sd                       =   2.3283064365387E-10
(PID.TID 0000.0001) %MON RA_max                       =   1.1119305196237E+11
(PID.TID 0000.0001) %MON RA_min                       =   1.4518580829016E+10
(PID.TID 0000.0001) %MON RA_mean                      =   7.5462954512622E+10
(PID.TID 0000.0001) %MON RA_sd                        =   3.0502073169179E+10
(PID.TID 0000.0001) %MON RAW_max                      =   1.1119305196237E+11
(PID.TID 0000.0001) %MON RAW_min                      =   1.4518580829016E+10
(PID.TID 0000.0001) %MON RAW_mean                     =   7.5462954512622E+10
(PID.TID 0000.0001) %MON RAW_sd                       =   3.0502073169179E+10
(PID.TID 0000.0001) %MON RAS_max                      =   1.1123116810562E+11
(PID.TID 0000.0001) %MON RAS_min                      =   1.1626823069547E+10
(PID.TID 0000.0001) %MON RAS_mean                     =   7.5437095242840E+10
(PID.TID 0000.0001) %MON RAS_sd                       =   3.0556132074289E+10
(PID.TID 0000.0001) %MON RAZ_max                      =   1.1123116810562E+11
(PID.TID 0000.0001) %MON RAZ_min                      =   1.1626823069547E+10
(PID.TID 0000.0001) %MON RAZ_mean                     =   7.5437095242840E+10
(PID.TID 0000.0001) %MON RAZ_sd                       =   3.0556132074289E+10
(PID.TID 0000.0001)  MDSREADFIELD: opening global file: topo_sl.bin
(PID.TID 0000.0001) // =======================================================
(PID.TID 0000.0001) // Field Model R_low (ini_masks_etc) at iteration          1
(PID.TID 0000.0001) // CMIN =         -5.200000000000000E+03
(PID.TID 0000.0001) // CMAX =         -5.200000000000000E+03
(PID.TID 0000.0001) // CINT =          0.000000000000000E+00
(PID.TID 0000.0001) // SYMBOLS (CMIN->CMAX): -abcdefghijklmnopqrstuvwxyz+
(PID.TID 0000.0001) //                  0.0: .
(PID.TID 0000.0001) // RANGE I (Lo:Hi:Step):(  -2:   4:   1)
(PID.TID 0000.0001) // RANGE J (Lo:Hi:Step):(  59:  -2:  -1)
(PID.TID 0000.0001) // RANGE K (Lo:Hi:Step):(   1:   1:   1)
(PID.TID 0000.0001) // =======================================================
(PID.TID 0000.0001) K =   1
(PID.TID 0000.0001) //
(PID.TID 0000.0001) // |--J--|**01234
(PID.TID 0000.0001) //     59 .......
(PID.TID 0000.0001) //     58 -------
(PID.TID 0000.0001) //     57 .......
(PID.TID 0000.0001) //     56 .......
(PID.TID 0000.0001) //     55 -------
(PID.TID 0000.0001) //     54 -------
(PID.TID 0000.0001) //     53 -------
(PID.TID 0000.0001) //     52 -------
(PID.TID 0000.0001) //     51 -------
(PID.TID 0000.0001) //     50 -------
(PID.TID 0000.0001) //     49 -------
(PID.TID 0000.0001) //     48 -------
(PID.TID 0000.0001) //     47 -------
(PID.TID 0000.0001) //     46 -------
(PID.TID 0000.0001) //     45 -------
(PID.TID 0000.0001) //     44 -------
(PID.TID 0000.0001) //     43 -------
(PID.TID 0000.0001) //     42 -------
(PID.TID 0000.0001) //     41 -------
(PID.TID 0000.0001) //     40 -------
(PID.TID 0000.0001) //     45 -------
(PID.TID 0000.0001) //     44 -------
(PID.TID 0000.0001) //     43 -------
(PID.TID 0000.0001) //     42 -------
(PID.TID 0000.0001) //     41 -------
(PID.TID 0000.0001) //     40 -------
(PID.TID 0000.0001) //     39 -------
(PID.TID 0000.0001) //     38 -------
(PID.TID 0000.0001) //     37 -------
(PID.TID 0000.0001) //     36 -------
(PID.TID 0000.0001) //     35 -------
(PID.TID 0000.0001) //     34 -------
(PID.TID 0000.0001) //     33 -------
(PID.TID 0000.0001) //     32 -------
(PID.TID 0000.0001) //     31 -------
(PID.TID 0000.0001) //     30 -------
(PID.TID 0000.0001) //     29 -------
(PID.TID 0000.0001) //     28 -------
(PID.TID 0000.0001) //     27 -------
(PID.TID 0000.0001) //     26 -------
(PID.TID 0000.0001) //     31 -------
(PID.TID 0000.0001) //     30 -------
(PID.TID 0000.0001) //     29 -------
(PID.TID 0000.0001) //     28 -------
(PID.TID 0000.0001) //     27 -------
(PID.TID 0000.0001) //     26 -------
(PID.TID 0000.0001) //     25 -------
(PID.TID 0000.0001) //     24 -------
(PID.TID 0000.0001) //     23 -------
(PID.TID 0000.0001) //     22 -------
(PID.TID 0000.0001) //     21 -------
(PID.TID 0000.0001) //     20 -------
(PID.TID 0000.0001) //     19 -------
(PID.TID 0000.0001) //     18 -------
(PID.TID 0000.0001) //     17 -------
(PID.TID 0000.0001) //     16 -------
(PID.TID 0000.0001) //     15 -------
(PID.TID 0000.0001) //     14 -------
(PID.TID 0000.0001) //     13 -------
(PID.TID 0000.0001) //     12 -------
(PID.TID 0000.0001) //     17 -------
(PID.TID 0000.0001) //     16 -------
(PID.TID 0000.0001) //     15 -------
(PID.TID 0000.0001) //     14 -------
(PID.TID 0000.0001) //     13 -------
(PID.TID 0000.0001) //     12 -------
(PID.TID 0000.0001) //     11 -------
(PID.TID 0000.0001) //     10 -------
(PID.TID 0000.0001) //      9 -------
(PID.TID 0000.0001) //      8 -------
(PID.TID 0000.0001) //      7 -------
(PID.TID 0000.0001) //      6 -------
(PID.TID 0000.0001) //      5 -------
(PID.TID 0000.0001) //      4 -------
(PID.TID 0000.0001) //      3 -------
(PID.TID 0000.0001) //      2 -------
(PID.TID 0000.0001) //      1 .......
(PID.TID 0000.0001) //      0 .......
(PID.TID 0000.0001) //     -1 -------
(PID.TID 0000.0001) //     -2 .......
(PID.TID 0000.0001) // =======================================================
(PID.TID 0000.0001) // END OF FIELD                                          =
(PID.TID 0000.0001) // =======================================================
(PID.TID 0000.0001) 
(PID.TID 0000.0001) // =======================================================
(PID.TID 0000.0001) // Field Model Ro_surf (ini_masks_etc) at iteration          1
(PID.TID 0000.0001) // CMIN =          1.000000000000000E+32
(PID.TID 0000.0001) // CMAX =         -1.000000000000000E+32
(PID.TID 0000.0001) // CINT =          0.000000000000000E+00
(PID.TID 0000.0001) // SYMBOLS (CMIN->CMAX): -abcdefghijklmnopqrstuvwxyz+
(PID.TID 0000.0001) //                  0.0: .
(PID.TID 0000.0001) // RANGE I (Lo:Hi:Step):(  -2:   4:   1)
(PID.TID 0000.0001) // RANGE J (Lo:Hi:Step):(  59:  -2:  -1)
(PID.TID 0000.0001) // RANGE K (Lo:Hi:Step):(   1:   1:   1)
(PID.TID 0000.0001) // =======================================================
(PID.TID 0000.0001) K =   1
(PID.TID 0000.0001) //
(PID.TID 0000.0001) // |--J--|**01234
(PID.TID 0000.0001) //     59 .......
(PID.TID 0000.0001) //     58 .......
(PID.TID 0000.0001) //     57 .......
(PID.TID 0000.0001) //     56 .......
(PID.TID 0000.0001) //     55 .......
(PID.TID 0000.0001) //     54 .......
(PID.TID 0000.0001) //     53 .......
(PID.TID 0000.0001) //     52 .......
(PID.TID 0000.0001) //     51 .......
(PID.TID 0000.0001) //     50 .......
(PID.TID 0000.0001) //     49 .......
(PID.TID 0000.0001) //     48 .......
(PID.TID 0000.0001) //     47 .......
(PID.TID 0000.0001) //     46 .......
(PID.TID 0000.0001) //     45 .......
(PID.TID 0000.0001) //     44 .......
(PID.TID 0000.0001) //     43 .......
(PID.TID 0000.0001) //     42 .......
(PID.TID 0000.0001) //     41 .......
(PID.TID 0000.0001) //     40 .......
(PID.TID 0000.0001) //     45 .......
(PID.TID 0000.0001) //     44 .......
(PID.TID 0000.0001) //     43 .......
(PID.TID 0000.0001) //     42 .......
(PID.TID 0000.0001) //     41 .......
(PID.TID 0000.0001) //     40 .......
(PID.TID 0000.0001) //     39 .......
(PID.TID 0000.0001) //     38 .......
(PID.TID 0000.0001) //     37 .......
(PID.TID 0000.0001) //     36 .......
(PID.TID 0000.0001) //     35 .......
(PID.TID 0000.0001) //     34 .......
(PID.TID 0000.0001) //     33 .......
(PID.TID 0000.0001) //     32 .......
(PID.TID 0000.0001) //     31 .......
(PID.TID 0000.0001) //     30 .......
(PID.TID 0000.0001) //     29 .......
(PID.TID 0000.0001) //     28 .......
(PID.TID 0000.0001) //     27 .......
(PID.TID 0000.0001) //     26 .......
(PID.TID 0000.0001) //     31 .......
(PID.TID 0000.0001) //     30 .......
(PID.TID 0000.0001) //     29 .......
(PID.TID 0000.0001) //     28 .......
(PID.TID 0000.0001) //     27 .......
(PID.TID 0000.0001) //     26 .......
(PID.TID 0000.0001) //     25 .......
(PID.TID 0000.0001) //     24 .......
(PID.TID 0000.0001) //     23 .......
(PID.TID 0000.0001) //     22 .......
(PID.TID 0000.0001) //     21 .......
(PID.TID 0000.0001) //     20 .......
(PID.TID 0000.0001) //     19 .......
(PID.TID 0000.0001) //     18 .......
(PID.TID 0000.0001) //     17 .......
(PID.TID 0000.0001) //     16 .......
(PID.TID 0000.0001) //     15 .......
(PID.TID 0000.0001) //     14 .......
(PID.TID 0000.0001) //     13 .......
(PID.TID 0000.0001) //     12 .......
(PID.TID 0000.0001) //     17 .......
(PID.TID 0000.0001) //     16 .......
(PID.TID 0000.0001) //     15 .......
(PID.TID 0000.0001) //     14 .......
(PID.TID 0000.0001) //     13 .......
(PID.TID 0000.0001) //     12 .......
(PID.TID 0000.0001) //     11 .......
(PID.TID 0000.0001) //     10 .......
(PID.TID 0000.0001) //      9 .......
(PID.TID 0000.0001) //      8 .......
(PID.TID 0000.0001) //      7 .......
(PID.TID 0000.0001) //      6 .......
(PID.TID 0000.0001) //      5 .......
(PID.TID 0000.0001) //      4 .......
(PID.TID 0000.0001) //      3 .......
(PID.TID 0000.0001) //      2 .......
(PID.TID 0000.0001) //      1 .......
(PID.TID 0000.0001) //      0 .......
(PID.TID 0000.0001) //     -1 .......
(PID.TID 0000.0001) //     -2 .......
(PID.TID 0000.0001) // =======================================================
(PID.TID 0000.0001) // END OF FIELD                                          =
(PID.TID 0000.0001) // =======================================================
(PID.TID 0000.0001) 
(PID.TID 0000.0001) // =======================================================
(PID.TID 0000.0001) // Field hFacC at iteration          1
(PID.TID 0000.0001) // CMIN =          1.000000000000000E+00
(PID.TID 0000.0001) // CMAX =          1.000000000000000E+00
(PID.TID 0000.0001) // CINT =          0.000000000000000E+00
(PID.TID 0000.0001) // SYMBOLS (CMIN->CMAX): -abcdefghijklmnopqrstuvwxyz+
(PID.TID 0000.0001) //                  0.0: .
(PID.TID 0000.0001) // RANGE I (Lo:Hi:Step):(  -2:   4:   1)
(PID.TID 0000.0001) // RANGE J (Lo:Hi:Step):(  59:  -2:  -1)
(PID.TID 0000.0001) // RANGE K (Lo:Hi:Step):(   1:   1:   1)
(PID.TID 0000.0001) // =======================================================
(PID.TID 0000.0001) K =   1
(PID.TID 0000.0001) //
(PID.TID 0000.0001) // |--J--|**01234
(PID.TID 0000.0001) //     59 .......
(PID.TID 0000.0001) //     58 -------
(PID.TID 0000.0001) //     57 .......
(PID.TID 0000.0001) //     56 .......
(PID.TID 0000.0001) //     55 -------
(PID.TID 0000.0001) //     54 -------
(PID.TID 0000.0001) //     53 -------
(PID.TID 0000.0001) //     52 -------
(PID.TID 0000.0001) //     51 -------
(PID.TID 0000.0001) //     50 -------
(PID.TID 0000.0001) //     49 -------
(PID.TID 0000.0001) //     48 -------
(PID.TID 0000.0001) //     47 -------
(PID.TID 0000.0001) //     46 -------
(PID.TID 0000.0001) //     45 -------
(PID.TID 0000.0001) //     44 -------
(PID.TID 0000.0001) //     43 -------
(PID.TID 0000.0001) //     42 -------
(PID.TID 0000.0001) //     41 -------
(PID.TID 0000.0001) //     40 -------
(PID.TID 0000.0001) //     45 -------
(PID.TID 0000.0001) //     44 -------
(PID.TID 0000.0001) //     43 -------
(PID.TID 0000.0001) //     42 -------
(PID.TID 0000.0001) //     41 -------
(PID.TID 0000.0001) //     40 -------
(PID.TID 0000.0001) //     39 -------
(PID.TID 0000.0001) //     38 -------
(PID.TID 0000.0001) //     37 -------
(PID.TID 0000.0001) //     36 -------
(PID.TID 0000.0001) //     35 -------
(PID.TID 0000.0001) //     34 -------
(PID.TID 0000.0001) //     33 -------
(PID.TID 0000.0001) //     32 -------
(PID.TID 0000.0001) //     31 -------
(PID.TID 0000.0001) //     30 -------
(PID.TID 0000.0001) //     29 -------
(PID.TID 0000.0001) //     28 -------
(PID.TID 0000.0001) //     27 -------
(PID.TID 0000.0001) //     26 -------
(PID.TID 0000.0001) //     31 -------
(PID.TID 0000.0001) //     30 -------
(PID.TID 0000.0001) //     29 -------
(PID.TID 0000.0001) //     28 -------
(PID.TID 0000.0001) //     27 -------
(PID.TID 0000.0001) //     26 -------
(PID.TID 0000.0001) //     25 -------
(PID.TID 0000.0001) //     24 -------
(PID.TID 0000.0001) //     23 -------
(PID.TID 0000.0001) //     22 -------
(PID.TID 0000.0001) //     21 -------
(PID.TID 0000.0001) //     20 -------
(PID.TID 0000.0001) //     19 -------
(PID.TID 0000.0001) //     18 -------
(PID.TID 0000.0001) //     17 -------
(PID.TID 0000.0001) //     16 -------
(PID.TID 0000.0001) //     15 -------
(PID.TID 0000.0001) //     14 -------
(PID.TID 0000.0001) //     13 -------
(PID.TID 0000.0001) //     12 -------
(PID.TID 0000.0001) //     17 -------
(PID.TID 0000.0001) //     16 -------
(PID.TID 0000.0001) //     15 -------
(PID.TID 0000.0001) //     14 -------
(PID.TID 0000.0001) //     13 -------
(PID.TID 0000.0001) //     12 -------
(PID.TID 0000.0001) //     11 -------
(PID.TID 0000.0001) //     10 -------
(PID.TID 0000.0001) //      9 -------
(PID.TID 0000.0001) //      8 -------
(PID.TID 0000.0001) //      7 -------
(PID.TID 0000.0001) //      6 -------
(PID.TID 0000.0001) //      5 -------
(PID.TID 0000.0001) //      4 -------
(PID.TID 0000.0001) //      3 -------
(PID.TID 0000.0001) //      2 -------
(PID.TID 0000.0001) //      1 .......
(PID.TID 0000.0001) //      0 .......
(PID.TID 0000.0001) //     -1 -------
(PID.TID 0000.0001) //     -2 .......
(PID.TID 0000.0001) // =======================================================
(PID.TID 0000.0001) // END OF FIELD                                          =
(PID.TID 0000.0001) // =======================================================
(PID.TID 0000.0001) 
(PID.TID 0000.0001) // =======================================================
(PID.TID 0000.0001) // Field hFacW at iteration          1
(PID.TID 0000.0001) // CMIN =          1.000000000000000E+00
(PID.TID 0000.0001) // CMAX =          1.000000000000000E+00
(PID.TID 0000.0001) // CINT =          0.000000000000000E+00
(PID.TID 0000.0001) // SYMBOLS (CMIN->CMAX): -abcdefghijklmnopqrstuvwxyz+
(PID.TID 0000.0001) //                  0.0: .
(PID.TID 0000.0001) // RANGE I (Lo:Hi:Step):(  -2:   4:   1)
(PID.TID 0000.0001) // RANGE J (Lo:Hi:Step):(  59:  -2:  -1)
(PID.TID 0000.0001) // RANGE K (Lo:Hi:Step):(   1:   1:   1)
(PID.TID 0000.0001) // =======================================================
(PID.TID 0000.0001) K =   1
(PID.TID 0000.0001) //
(PID.TID 0000.0001) // |--J--|**01234
(PID.TID 0000.0001) //     59 -------
(PID.TID 0000.0001) //     58 -------
(PID.TID 0000.0001) //     57 .......
(PID.TID 0000.0001) //     56 .......
(PID.TID 0000.0001) //     55 -------
(PID.TID 0000.0001) //     54 -------
(PID.TID 0000.0001) //     53 -------
(PID.TID 0000.0001) //     52 -------
(PID.TID 0000.0001) //     51 -------
(PID.TID 0000.0001) //     50 -------
(PID.TID 0000.0001) //     49 -------
(PID.TID 0000.0001) //     48 -------
(PID.TID 0000.0001) //     47 -------
(PID.TID 0000.0001) //     46 -------
(PID.TID 0000.0001) //     45 -------
(PID.TID 0000.0001) //     44 -------
(PID.TID 0000.0001) //     43 -------
(PID.TID 0000.0001) //     42 -------
(PID.TID 0000.0001) //     41 -------
(PID.TID 0000.0001) //     40 -------
(PID.TID 0000.0001) //     45 -------
(PID.TID 0000.0001) //     44 -------
(PID.TID 0000.0001) //     43 -------
(PID.TID 0000.0001) //     42 -------
(PID.TID 0000.0001) //     41 -------
(PID.TID 0000.0001) //     40 -------
(PID.TID 0000.0001) //     39 -------
(PID.TID 0000.0001) //     38 -------
(PID.TID 0000.0001) //     37 -------
(PID.TID 0000.0001) //     36 -------
(PID.TID 0000.0001) //     35 -------
(PID.TID 0000.0001) //     34 -------
(PID.TID 0000.0001) //     33 -------
(PID.TID 0000.0001) //     32 -------
(PID.TID 0000.0001) //     31 -------
(PID.TID 0000.0001) //     30 -------
(PID.TID 0000.0001) //     29 -------
(PID.TID 0000.0001) //     28 -------
(PID.TID 0000.0001) //     27 -------
(PID.TID 0000.0001) //     26 -------
(PID.TID 0000.0001) //     31 -------
(PID.TID 0000.0001) //     30 -------
(PID.TID 0000.0001) //     29 -------
(PID.TID 0000.0001) //     28 -------
(PID.TID 0000.0001) //     27 -------
(PID.TID 0000.0001) //     26 -------
(PID.TID 0000.0001) //     25 -------
(PID.TID 0000.0001) //     24 -------
(PID.TID 0000.0001) //     23 -------
(PID.TID 0000.0001) //     22 -------
(PID.TID 0000.0001) //     21 -------
(PID.TID 0000.0001) //     20 -------
(PID.TID 0000.0001) //     19 -------
(PID.TID 0000.0001) //     18 -------
(PID.TID 0000.0001) //     17 -------
(PID.TID 0000.0001) //     16 -------
(PID.TID 0000.0001) //     15 -------
(PID.TID 0000.0001) //     14 -------
(PID.TID 0000.0001) //     13 -------
(PID.TID 0000.0001) //     12 -------
(PID.TID 0000.0001) //     17 -------
(PID.TID 0000.0001) //     16 -------
(PID.TID 0000.0001) //     15 -------
(PID.TID 0000.0001) //     14 -------
(PID.TID 0000.0001) //     13 -------
(PID.TID 0000.0001) //     12 -------
(PID.TID 0000.0001) //     11 -------
(PID.TID 0000.0001) //     10 -------
(PID.TID 0000.0001) //      9 -------
(PID.TID 0000.0001) //      8 -------
(PID.TID 0000.0001) //      7 -------
(PID.TID 0000.0001) //      6 -------
(PID.TID 0000.0001) //      5 -------
(PID.TID 0000.0001) //      4 -------
(PID.TID 0000.0001) //      3 -------
(PID.TID 0000.0001) //      2 -------
(PID.TID 0000.0001) //      1 .......
(PID.TID 0000.0001) //      0 .......
(PID.TID 0000.0001) //     -1 -------
(PID.TID 0000.0001) //     -2 -------
(PID.TID 0000.0001) // =======================================================
(PID.TID 0000.0001) // END OF FIELD                                          =
(PID.TID 0000.0001) // =======================================================
(PID.TID 0000.0001) 
(PID.TID 0000.0001) // =======================================================
(PID.TID 0000.0001) // Field hFacS at iteration          1
(PID.TID 0000.0001) // CMIN =          1.000000000000000E+00
(PID.TID 0000.0001) // CMAX =          1.000000000000000E+00
(PID.TID 0000.0001) // CINT =          0.000000000000000E+00
(PID.TID 0000.0001) // SYMBOLS (CMIN->CMAX): -abcdefghijklmnopqrstuvwxyz+
(PID.TID 0000.0001) //                  0.0: .
(PID.TID 0000.0001) // RANGE I (Lo:Hi:Step):(  -2:   4:   1)
(PID.TID 0000.0001) // RANGE J (Lo:Hi:Step):(  59:  -2:  -1)
(PID.TID 0000.0001) // RANGE K (Lo:Hi:Step):(   1:   1:   1)
(PID.TID 0000.0001) // =======================================================
(PID.TID 0000.0001) K =   1
(PID.TID 0000.0001) //
(PID.TID 0000.0001) // |--J--|**01234
(PID.TID 0000.0001) //     59 .......
(PID.TID 0000.0001) //     58 .......
(PID.TID 0000.0001) //     57 .......
(PID.TID 0000.0001) //     56 .......
(PID.TID 0000.0001) //     55 -------
(PID.TID 0000.0001) //     54 -------
(PID.TID 0000.0001) //     53 -------
(PID.TID 0000.0001) //     52 -------
(PID.TID 0000.0001) //     51 -------
(PID.TID 0000.0001) //     50 -------
(PID.TID 0000.0001) //     49 -------
(PID.TID 0000.0001) //     48 -------
(PID.TID 0000.0001) //     47 -------
(PID.TID 0000.0001) //     46 -------
(PID.TID 0000.0001) //     45 -------
(PID.TID 0000.0001) //     44 -------
(PID.TID 0000.0001) //     43 -------
(PID.TID 0000.0001) //     42 -------
(PID.TID 0000.0001) //     41 -------
(PID.TID 0000.0001) //     40 -------
(PID.TID 0000.0001) //     45 -------
(PID.TID 0000.0001) //     44 -------
(PID.TID 0000.0001) //     43 -------
(PID.TID 0000.0001) //     42 -------
(PID.TID 0000.0001) //     41 -------
(PID.TID 0000.0001) //     40 -------
(PID.TID 0000.0001) //     39 -------
(PID.TID 0000.0001) //     38 -------
(PID.TID 0000.0001) //     37 -------
(PID.TID 0000.0001) //     36 -------
(PID.TID 0000.0001) //     35 -------
(PID.TID 0000.0001) //     34 -------
(PID.TID 0000.0001) //     33 -------
(PID.TID 0000.0001) //     32 -------
(PID.TID 0000.0001) //     31 -------
(PID.TID 0000.0001) //     30 -------
(PID.TID 0000.0001) //     29 -------
(PID.TID 0000.0001) //     28 -------
(PID.TID 0000.0001) //     27 -------
(PID.TID 0000.0001) //     26 -------
(PID.TID 0000.0001) //     31 -------
(PID.TID 0000.0001) //     30 -------
(PID.TID 0000.0001) //     29 -------
(PID.TID 0000.0001) //     28 -------
(PID.TID 0000.0001) //     27 -------
(PID.TID 0000.0001) //     26 -------
(PID.TID 0000.0001) //     25 -------
(PID.TID 0000.0001) //     24 -------
(PID.TID 0000.0001) //     23 -------
(PID.TID 0000.0001) //     22 -------
(PID.TID 0000.0001) //     21 -------
(PID.TID 0000.0001) //     20 -------
(PID.TID 0000.0001) //     19 -------
(PID.TID 0000.0001) //     18 -------
(PID.TID 0000.0001) //     17 -------
(PID.TID 0000.0001) //     16 -------
(PID.TID 0000.0001) //     15 -------
(PID.TID 0000.0001) //     14 -------
(PID.TID 0000.0001) //     13 -------
(PID.TID 0000.0001) //     12 -------
(PID.TID 0000.0001) //     17 -------
(PID.TID 0000.0001) //     16 -------
(PID.TID 0000.0001) //     15 -------
(PID.TID 0000.0001) //     14 -------
(PID.TID 0000.0001) //     13 -------
(PID.TID 0000.0001) //     12 -------
(PID.TID 0000.0001) //     11 -------
(PID.TID 0000.0001) //     10 -------
(PID.TID 0000.0001) //      9 -------
(PID.TID 0000.0001) //      8 -------
(PID.TID 0000.0001) //      7 -------
(PID.TID 0000.0001) //      6 -------
(PID.TID 0000.0001) //      5 -------
(PID.TID 0000.0001) //      4 -------
(PID.TID 0000.0001) //      3 -------
(PID.TID 0000.0001) //      2 .......
(PID.TID 0000.0001) //      1 .......
(PID.TID 0000.0001) //      0 .......
(PID.TID 0000.0001) //     -1 .......
(PID.TID 0000.0001) //     -2 .......
(PID.TID 0000.0001) // =======================================================
(PID.TID 0000.0001) // END OF FIELD                                          =
(PID.TID 0000.0001) // =======================================================
(PID.TID 0000.0001) 
(PID.TID 0000.0001)  PACKAGES_BOOT: opening data.pkg
(PID.TID 0000.0001)  OPEN_COPY_DATA_FILE: opening file data.pkg
(PID.TID 0000.0001) // =======================================================
(PID.TID 0000.0001) // Parameter file "data.pkg"
(PID.TID 0000.0001) // =======================================================
(PID.TID 0000.0001) ># Packages
(PID.TID 0000.0001) > &PACKAGES
(PID.TID 0000.0001) > useGMRedi=.TRUE.,
(PID.TID 0000.0001) > &
(PID.TID 0000.0001) >
(PID.TID 0000.0001) 
(PID.TID 0000.0001)  PACKAGES_BOOT: finished reading data.pkg
(PID.TID 0000.0001)  GM_READPARMS: opening data.gmredi
(PID.TID 0000.0001)  OPEN_COPY_DATA_FILE: opening file data.gmredi
(PID.TID 0000.0001) // =======================================================
(PID.TID 0000.0001) // Parameter file "data.gmredi"
(PID.TID 0000.0001) // =======================================================
(PID.TID 0000.0001) ># from MOM
(PID.TID 0000.0001) ># GM_background_K: 	isopycnal diffusion coefficien
(PID.TID 0000.0001) ># GM_maxSlope:		max slope of isopycnals
(PID.TID 0000.0001) ># GM_Scrit:		transition for scaling diffusion coefficient
(PID.TID 0000.0001) ># GM_Sd:		half width scaling for diffusion coefficient
(PID.TID 0000.0001) ># real background diff:	horizontal diffusion
(PID.TID 0000.0001) >
(PID.TID 0000.0001) ># ifdef GM_VISBECK_VARIABLE_K, include following in GM_PARM01
(PID.TID 0000.0001) ># GM_Visbeck_alpha   = 0.,
(PID.TID 0000.0001) ># GM_Visbeck_length  = 2.e+5,
(PID.TID 0000.0001) ># GM_Visbeck_depth   = 1.e+3,
(PID.TID 0000.0001) ># GM_Visbeck_maxval_K= 2.5e+3,
(PID.TID 0000.0001) >
(PID.TID 0000.0001) > &GM_PARM01
(PID.TID 0000.0001) >  GM_AdvForm=.TRUE.,
(PID.TID 0000.0001) ># GM_AdvSeparate=.TRUE.,
(PID.TID 0000.0001) ># GM_background_K=1000.,
(PID.TID 0000.0001) >  GM_background_K=10.,
(PID.TID 0000.0001) ># GM_isopycK=1000.,
(PID.TID 0000.0001) ># GM_taper_scheme    = 'clipping',
(PID.TID 0000.0001) >  GM_taper_scheme    = 'linear',
(PID.TID 0000.0001) ># GM_taper_scheme    = 'gkw91',
(PID.TID 0000.0001) ># GM_taper_scheme    = 'ldd97',
(PID.TID 0000.0001) >  GM_maxSlope        = 1.e-2,
(PID.TID 0000.0001) >  GM_Scrit           = 4.e-3,
(PID.TID 0000.0001) >  GM_Sd              = 1.e-3,
(PID.TID 0000.0001) >  GM_Visbeck_alpha   = 1.e-2,
(PID.TID 0000.0001) >  GM_Visbeck_length  = 2.e+5,
(PID.TID 0000.0001) >  GM_Visbeck_depth   = 1.e+3,
(PID.TID 0000.0001) >  GM_Visbeck_maxval_K= 2.5e+3,
(PID.TID 0000.0001) > &end
(PID.TID 0000.0001) >
(PID.TID 0000.0001) >
(PID.TID 0000.0001) 
(PID.TID 0000.0001)  GM_READPARMS: finished reading data.gmredi
(PID.TID 0000.0001) GMREDI_CHECK: #define GMREDI
(PID.TID 0000.0001) GM_AdvForm =  /* if FALSE => use SkewFlux Form */
(PID.TID 0000.0001)                   T
(PID.TID 0000.0001)     ;
(PID.TID 0000.0001) GM_AdvSeparate = /* Calc Bolus & Euler Adv. separately */
(PID.TID 0000.0001)                   F
(PID.TID 0000.0001)     ;
(PID.TID 0000.0001) GM_ExtraDiag =  /* Tensor Extra Diag (line 1&2) non 0 */
(PID.TID 0000.0001)                   T
(PID.TID 0000.0001)     ;
(PID.TID 0000.0001) GM_isopycK =   /* Background Isopyc. Diffusivity ( m^2/s ) */
(PID.TID 0000.0001)                 1.000000000000000E+01
(PID.TID 0000.0001)     ;
(PID.TID 0000.0001)  GM_skewflx*K =   /* Background GM_SkewFlx Diffusivity ( m^2/s ) */
(PID.TID 0000.0001)                 0.000000000000000E+00
(PID.TID 0000.0001)     ;
(PID.TID 0000.0001)  GM_advec*K =   /* Backg. GM-Advec(=Bolus) Diffusivity ( m^2/s ) */
(PID.TID 0000.0001)                 1.000000000000000E+01
(PID.TID 0000.0001)     ;
(PID.TID 0000.0001)  GM_Visbeck_alpha =   /* Visbeck alpha coeff. ( ) */
(PID.TID 0000.0001)                 1.000000000000000E-02
(PID.TID 0000.0001)     ;
(PID.TID 0000.0001)  Tapering/Cliping : linear
(PID.TID 0000.0001)  GM_Small_Number =  /* epsilon used in slope calc */
(PID.TID 0000.0001)                 1.000000000000000E-12
(PID.TID 0000.0001)     ;
(PID.TID 0000.0001)  GM_slopeSqCutoff =  /* Slope^2 cut-off value */
(PID.TID 0000.0001)                 1.000000000000000E+48
(PID.TID 0000.0001)     ;
(PID.TID 0000.0001) 
(PID.TID 0000.0001) // ===================================
(PID.TID 0000.0001) // GAD parameters :
(PID.TID 0000.0001) // ===================================
(PID.TID 0000.0001) tempAdvScheme =   /* Temp. advection scheme selector */
(PID.TID 0000.0001)                      77
(PID.TID 0000.0001)     ;
(PID.TID 0000.0001) tempMultiDimAdvec =   /* use Muti-Dim Advec method for Temp */
(PID.TID 0000.0001)                   T
(PID.TID 0000.0001)     ;
(PID.TID 0000.0001) tempAdamsBashforth =   /* use Adams-Bashforth time-stepping for Temp */
(PID.TID 0000.0001)                   F
(PID.TID 0000.0001)     ;
(PID.TID 0000.0001) saltAdvScheme =   /* Salt. advection scheme selector */
(PID.TID 0000.0001)                       2
(PID.TID 0000.0001)     ;
(PID.TID 0000.0001) saltMultiDimAdvec =   /* use Muti-Dim Advec method for Salt */
(PID.TID 0000.0001)                   F
(PID.TID 0000.0001)     ;
(PID.TID 0000.0001) saltAdamsBashforth =   /* use Adams-Bashforth time-stepping for Salt */
(PID.TID 0000.0001)                   T
(PID.TID 0000.0001)     ;
(PID.TID 0000.0001) // ===================================
(PID.TID 0000.0001) %MON fCori_max                    =   1.4419980985793E-04
(PID.TID 0000.0001) %MON fCori_min                    =  -1.4419980985793E-04
(PID.TID 0000.0001) %MON fCori_mean                   =   4.8401882700246E-22
(PID.TID 0000.0001) %MON fCori_sd                     =   9.9129524406610E-05
(PID.TID 0000.0001) %MON fCoriG_max                   =   1.4365344605787E-04
(PID.TID 0000.0001) %MON fCoriG_min                   =  -1.4464734631126E-04
(PID.TID 0000.0001) %MON fCoriG_mean                  =  -2.6299517511138E-06
(PID.TID 0000.0001) %MON fCoriG_sd                    =   9.9997297738060E-05
(PID.TID 0000.0001) %MON fCoriCos_max                 =   1.4539426427085E-04
(PID.TID 0000.0001) %MON fCoriCos_min                 =   1.8984265119424E-05
(PID.TID 0000.0001) %MON fCoriCos_mean                =   9.8674157759248E-05
(PID.TID 0000.0001) %MON fCoriCos_sd                  =   3.9884025205722E-05
(PID.TID 0000.0001) // CG2D normalisation factor =          0.3504529336387451438029547E-04
(PID.TID 0000.0001) 
 ini_cg2d: sumArea,cg2dTolerance =  4.19688829104880E+12  1.22567651146013E-12
(PID.TID 0000.0001) CONFIG_CHECK: OK
(PID.TID 0000.0001) // =======================================================
(PID.TID 0000.0001) // Model configuration
(PID.TID 0000.0001) // =======================================================
(PID.TID 0000.0001) //
(PID.TID 0000.0001) // "Physical" paramters ( PARM01 in namelist )
(PID.TID 0000.0001) //
(PID.TID 0000.0001) buoyancyRelation = OCEANIC
(PID.TID 0000.0001) tRef =   /* Reference temperature profile ( oC or oK ) */
(PID.TID 0000.0001)                 1.880000000000000E+01,      /* K =  1 */
(PID.TID 0000.0001)                 1.630000000000000E+01,      /* K =  2 */
(PID.TID 0000.0001)                 1.310000000000000E+01,      /* K =  3 */
(PID.TID 0000.0001)                 1.040000000000000E+01,      /* K =  4 */
(PID.TID 0000.0001)                 8.100000000000000E+00,      /* K =  5 */
(PID.TID 0000.0001)                 6.000000000000000E+00,      /* K =  6 */
(PID.TID 0000.0001)                 4.500000000000000E+00,      /* K =  7 */
(PID.TID 0000.0001)                 3.400000000000000E+00,      /* K =  8 */
(PID.TID 0000.0001)                 2.700000000000000E+00,      /* K =  9 */
(PID.TID 0000.0001)                 2.200000000000000E+00,      /* K = 10 */
(PID.TID 0000.0001)                 1.800000000000000E+00,      /* K = 11 */
(PID.TID 0000.0001)                 1.500000000000000E+00,      /* K = 12 */
(PID.TID 0000.0001)                 1.200000000000000E+00,      /* K = 13 */
(PID.TID 0000.0001)                 1.000000000000000E+00,      /* K = 14 */
(PID.TID 0000.0001)                 9.000000000000000E-01       /* K = 15 */
(PID.TID 0000.0001)     ;
(PID.TID 0000.0001) sRef =   /* Reference salinity profile ( ppt ) */
(PID.TID 0000.0001)    15 @  3.470000000000000E+01              /* K =  1: 15 */
(PID.TID 0000.0001)     ;
(PID.TID 0000.0001) viscAh =   /* Lateral eddy viscosity ( m^2/s ) */
(PID.TID 0000.0001)                 1.200000000000000E+06
(PID.TID 0000.0001)     ;
(PID.TID 0000.0001) viscAh =   /* Lateral biharmonic viscosity ( m^4/s ) */
(PID.TID 0000.0001)                 0.000000000000000E+00
(PID.TID 0000.0001)     ;
(PID.TID 0000.0001) no_slip_sides =  /* Viscous BCs: No-slip sides */
(PID.TID 0000.0001)                   F
(PID.TID 0000.0001)     ;
(PID.TID 0000.0001) viscAz =   /* Vertical eddy viscosity ( m^2/s ) */
(PID.TID 0000.0001)                 1.000000000000000E-03
(PID.TID 0000.0001)     ;
(PID.TID 0000.0001) viscAr =   /* Vertical eddy viscosity ( units of r^2/s ) */
(PID.TID 0000.0001)                 1.000000000000000E-03
(PID.TID 0000.0001)     ;
(PID.TID 0000.0001) diffKhT =   /* Laplacian diffusion of heat laterally ( m^2/s ) */
(PID.TID 0000.0001)                 0.000000000000000E+00
(PID.TID 0000.0001)     ;
(PID.TID 0000.0001) diffK4T =   /* Bihaarmonic diffusion of heat laterally ( m^4/s ) */
(PID.TID 0000.0001)                 0.000000000000000E+00
(PID.TID 0000.0001)     ;
(PID.TID 0000.0001) diffKzT =   /* Laplacian diffusion of heat vertically ( m^2/s ) */
(PID.TID 0000.0001)                 1.000000000000000E-05
(PID.TID 0000.0001)     ;
(PID.TID 0000.0001) diffKrT =   /* Laplacian diffusion of heat vertically ( m^2/s ) */
(PID.TID 0000.0001)                 1.000000000000000E-05
(PID.TID 0000.0001)     ;
(PID.TID 0000.0001) diffKhS =   /* Laplacian diffusion of salt laterally ( m^2/s ) */
(PID.TID 0000.0001)                 0.000000000000000E+00
(PID.TID 0000.0001)     ;
(PID.TID 0000.0001) diffK4S =   /* Bihaarmonic diffusion of salt laterally ( m^4/s ) */
(PID.TID 0000.0001)                 0.000000000000000E+00
(PID.TID 0000.0001)     ;
(PID.TID 0000.0001) diffKzS =   /* Laplacian diffusion of salt vertically ( m^2/s ) */
(PID.TID 0000.0001)                 1.234567000000000E+05
(PID.TID 0000.0001)     ;
(PID.TID 0000.0001) diffKrS =   /* Laplacian diffusion of salt vertically ( m^2/s ) */
(PID.TID 0000.0001)                 0.000000000000000E+00
(PID.TID 0000.0001)     ;
(PID.TID 0000.0001)  Equation of State : eosType = LINEAR
(PID.TID 0000.0001) tAlpha =   /* Linear EOS thermal expansion coefficient ( 1/degree ) */
(PID.TID 0000.0001)                 2.000000000000000E-04
(PID.TID 0000.0001)     ;
(PID.TID 0000.0001) sBeta =   /* Linear EOS haline contraction coefficient ( 1/ppt ) */
(PID.TID 0000.0001)                 0.000000000000000E+00
(PID.TID 0000.0001)     ;
(PID.TID 0000.0001) rhonil =   /* Reference density ( kg/m^3 ) */
(PID.TID 0000.0001)                 1.035000000000000E+03
(PID.TID 0000.0001)     ;
(PID.TID 0000.0001) rhoConst =   /* Reference density ( kg/m^3 ) */
(PID.TID 0000.0001)                 1.035000000000000E+03
(PID.TID 0000.0001)     ;
(PID.TID 0000.0001) rhoConstFresh =   /* Reference density ( kg/m^3 ) */
(PID.TID 0000.0001)                 9.998000000000000E+02
(PID.TID 0000.0001)     ;
(PID.TID 0000.0001) gravity =   /* Gravitational acceleration ( m/s^2 ) */
(PID.TID 0000.0001)                 9.810000000000000E+00
(PID.TID 0000.0001)     ;
(PID.TID 0000.0001) gBaro =   /* Barotropic gravity ( m/s^2 ) */
(PID.TID 0000.0001)                 9.810000000000000E+00
(PID.TID 0000.0001)     ;
(PID.TID 0000.0001) rotationPeriod =   /* Rotation Period ( s ) */
(PID.TID 0000.0001)                 8.640000000000000E+04
(PID.TID 0000.0001)     ;
(PID.TID 0000.0001) omega =   /* Angular velocity ( rad/s ) */
(PID.TID 0000.0001)                 7.272205216643040E-05
(PID.TID 0000.0001)     ;
(PID.TID 0000.0001) f0 =   /* Reference coriolis parameter ( 1/s ) */
(PID.TID 0000.0001)                 1.000000000000000E-04
(PID.TID 0000.0001)     ;
(PID.TID 0000.0001) beta =   /* Beta ( 1/(m.s) ) */
(PID.TID 0000.0001)                 9.999999999999999E-12
(PID.TID 0000.0001)     ;
(PID.TID 0000.0001) freeSurfFac =   /* Implicit free surface factor */
(PID.TID 0000.0001)                 1.000000000000000E+00
(PID.TID 0000.0001)     ;
(PID.TID 0000.0001) implicitFreeSurface =   /* Implicit free surface on/off flag */
(PID.TID 0000.0001)                   T
(PID.TID 0000.0001)     ;
(PID.TID 0000.0001) rigidLid =   /* Rigid lid on/off flag */
(PID.TID 0000.0001)                   F
(PID.TID 0000.0001)     ;
(PID.TID 0000.0001) implicSurfPress =   /* Surface Pressure implicit factor (0-1)*/
(PID.TID 0000.0001)                 1.000000000000000E+00
(PID.TID 0000.0001)     ;
(PID.TID 0000.0001) implicDiv2Dflow =   /* Barot. Flow Div. implicit factor (0-1)*/
(PID.TID 0000.0001)                 1.000000000000000E+00
(PID.TID 0000.0001)     ;
(PID.TID 0000.0001) exactConserv =   /* Exact Volume Conservation on/off flag*/
(PID.TID 0000.0001)                   T
(PID.TID 0000.0001)     ;
(PID.TID 0000.0001) uniformLin_PhiSurf =   /* use uniform Bo_surf on/off flag*/
(PID.TID 0000.0001)                   T
(PID.TID 0000.0001)     ;
(PID.TID 0000.0001) nonlinFreeSurf =   /* Non-linear Free Surf. options (-1,0,1,2,3)*/
(PID.TID 0000.0001)                       0
(PID.TID 0000.0001)     ;
(PID.TID 0000.0001)      -1,0= Off ; 1,2,3= On, 2=+rescale gU,gV, 3=+update cg2d solv.
(PID.TID 0000.0001) hFacInf =   /* lower threshold for hFac (nonlinFreeSurf only)*/
(PID.TID 0000.0001)                 2.000000000000000E-01
(PID.TID 0000.0001)     ;
(PID.TID 0000.0001) hFacSup =   /* upper threshold for hFac (nonlinFreeSurf only)*/
(PID.TID 0000.0001)                 2.000000000000000E+00
(PID.TID 0000.0001)     ;
(PID.TID 0000.0001) select_rStar =   /* r* Coordinate options (not yet implemented)*/
(PID.TID 0000.0001)                       0
(PID.TID 0000.0001)     ;
(PID.TID 0000.0001) useRealFreshWaterFlux =   /* Real Fresh Water Flux on/off flag*/
(PID.TID 0000.0001)                   F
(PID.TID 0000.0001)     ;
(PID.TID 0000.0001) convertFW2Salt = /* convert F.W. Flux to Salt Flux (-1=use local S)(ppt)*/
(PID.TID 0000.0001)                 3.500000000000000E+01
(PID.TID 0000.0001)     ;
(PID.TID 0000.0001) multiDimAdvection =   /* enable/disable Multi-Dim Advection */
(PID.TID 0000.0001)                   T
(PID.TID 0000.0001)     ;
(PID.TID 0000.0001) staggerTimeStep =   /* Stagger time stepping on/off flag */
(PID.TID 0000.0001)                   T
(PID.TID 0000.0001)     ;
(PID.TID 0000.0001) momStepping =  /* Momentum equation on/off flag */
(PID.TID 0000.0001)                   T
(PID.TID 0000.0001)     ;
(PID.TID 0000.0001) momAdvection =  /* Momentum advection on/off flag */
(PID.TID 0000.0001)                   T
(PID.TID 0000.0001)     ;
(PID.TID 0000.0001) momViscosity =  /* Momentum viscosity on/off flag */
(PID.TID 0000.0001)                   T
(PID.TID 0000.0001)     ;
(PID.TID 0000.0001) useCoriolis =  /* Coriolis on/off flag */
(PID.TID 0000.0001)                   T
(PID.TID 0000.0001)     ;
(PID.TID 0000.0001) momForcing =  /* Momentum forcing on/off flag */
(PID.TID 0000.0001)                   T
(PID.TID 0000.0001)     ;
(PID.TID 0000.0001) momPressureForcing =  /* Momentum pressure term on/off flag */
(PID.TID 0000.0001)                   T
(PID.TID 0000.0001)     ;
(PID.TID 0000.0001) tempStepping =  /* Temperature equation on/off flag */
(PID.TID 0000.0001)                   T
(PID.TID 0000.0001)     ;
(PID.TID 0000.0001) tempAdvection=  /* Temperature advection on/off flag */
(PID.TID 0000.0001)                   T
(PID.TID 0000.0001)     ;
(PID.TID 0000.0001) tempForcing  =  /* Temperature forcing on/off flag */
(PID.TID 0000.0001)                   T
(PID.TID 0000.0001)     ;
(PID.TID 0000.0001) saltStepping =  /* Salinity equation on/off flag */
(PID.TID 0000.0001)                   F
(PID.TID 0000.0001)     ;
(PID.TID 0000.0001) saltAdvection=  /* Salinity advection on/off flag */
(PID.TID 0000.0001)                   F
(PID.TID 0000.0001)     ;
(PID.TID 0000.0001) saltForcing  =  /* Salinity forcing on/off flag */
(PID.TID 0000.0001)                   F
(PID.TID 0000.0001)     ;
(PID.TID 0000.0001) nonHydrostatic =  /* Non-Hydrostatic on/off flag */
(PID.TID 0000.0001)                   F
(PID.TID 0000.0001)     ;
(PID.TID 0000.0001) useCDscheme =  /* CD scheme on/off flag */
(PID.TID 0000.0001)                   T
(PID.TID 0000.0001)     ;
(PID.TID 0000.0001) useJamartWetPoints= /* Coriolis WetPoints method flag */
(PID.TID 0000.0001)                   F
(PID.TID 0000.0001)     ;
(PID.TID 0000.0001) //
(PID.TID 0000.0001) // Elliptic solver(s) paramters ( PARM02 in namelist )
(PID.TID 0000.0001) //
(PID.TID 0000.0001) cg2dMaxIters =   /* Upper limit on 2d con. grad iterations  */
(PID.TID 0000.0001)                    1000
(PID.TID 0000.0001)     ;
(PID.TID 0000.0001) cg2dChkResFreq =   /* 2d con. grad convergence test frequency */
(PID.TID 0000.0001)                       1
(PID.TID 0000.0001)     ;
(PID.TID 0000.0001) cg2dTargetResidual =   /* 2d con. grad target residual  */
(PID.TID 0000.0001)                 1.000000000000000E-07
(PID.TID 0000.0001)     ;
(PID.TID 0000.0001) //
(PID.TID 0000.0001) // Time stepping paramters ( PARM03 in namelist )
(PID.TID 0000.0001) //
(PID.TID 0000.0001) nIter0 =   /* Base timestep number  */
(PID.TID 0000.0001)                   36000
(PID.TID 0000.0001)     ;
(PID.TID 0000.0001) nTimeSteps =   /* Number of timesteps */
(PID.TID 0000.0001)                      20
(PID.TID 0000.0001)     ;
(PID.TID 0000.0001) deltatTmom =   /* Momentum equation timestep ( s ) */
(PID.TID 0000.0001)                 1.200000000000000E+03
(PID.TID 0000.0001)     ;
(PID.TID 0000.0001) deltaTfreesurf =   /* FreeSurface equation timestep ( s ) */
(PID.TID 0000.0001)                 3.600000000000000E+03
(PID.TID 0000.0001)     ;
(PID.TID 0000.0001) deltatTtracer =   /* Tracer equation timestep ( s ) */
(PID.TID 0000.0001)                 8.640000000000000E+04
(PID.TID 0000.0001)     ;
(PID.TID 0000.0001) deltatTClock  =   /* Model clock timestep ( s ) */
(PID.TID 0000.0001)                 8.640000000000000E+04
(PID.TID 0000.0001)     ;
(PID.TID 0000.0001) cAdjFreq =   /* Convective adjustment interval ( s ) */
(PID.TID 0000.0001)                 0.000000000000000E+00
(PID.TID 0000.0001)     ;
(PID.TID 0000.0001) forcing_In_AB =   /* put T,S Forcing in Adams-Bash. stepping */
(PID.TID 0000.0001)                   T
(PID.TID 0000.0001)     ;
(PID.TID 0000.0001) abeps =   /* Adams-Bashforth stabilizing weight */
(PID.TID 0000.0001)                 1.000000000000000E-01
(PID.TID 0000.0001)     ;
(PID.TID 0000.0001) tauCD =   /* CD coupling time-scale ( s ) */
(PID.TID 0000.0001)                 3.214280000000000E+05
(PID.TID 0000.0001)     ;
(PID.TID 0000.0001) rCD =   /* Normalised CD coupling parameter */
(PID.TID 0000.0001)                 9.962666600296178E-01
(PID.TID 0000.0001)     ;
(PID.TID 0000.0001) startTime =   /* Run start time ( s ). */
(PID.TID 0000.0001)                 3.110400000000000E+09
(PID.TID 0000.0001)     ;
(PID.TID 0000.0001) endTime =   /* Integration ending time ( s ). */
(PID.TID 0000.0001)                 3.112128000000000E+09
(PID.TID 0000.0001)     ;
(PID.TID 0000.0001) pChkPtFreq =   /* Permanent restart/checkpoint file interval ( s ). */
(PID.TID 0000.0001)                 3.110400000000000E+09
(PID.TID 0000.0001)     ;
(PID.TID 0000.0001) chkPtFreq =   /* Rolling restart/checkpoint file interval ( s ). */
(PID.TID 0000.0001)                 0.000000000000000E+00
(PID.TID 0000.0001)     ;
(PID.TID 0000.0001) dumpFreq =   /* Model state write out interval ( s ). */
(PID.TID 0000.0001)                 1.555200000000000E+09
(PID.TID 0000.0001)     ;
(PID.TID 0000.0001) //
(PID.TID 0000.0001) // Gridding paramters ( PARM04 in namelist )
(PID.TID 0000.0001) //
(PID.TID 0000.0001) usingCartesianGrid =   /* Cartesian coordinates flag ( True / False ) */
(PID.TID 0000.0001)                   F
(PID.TID 0000.0001)     ;
(PID.TID 0000.0001) usingSphericalPolarGrid =   /* Spherical coordinates flag ( True / False ) */
(PID.TID 0000.0001)                   T
(PID.TID 0000.0001)     ;
(PID.TID 0000.0001) groundAtK1 =   /* Lower Boundary (ground) at the surface(k=1) ( T / F ) */
(PID.TID 0000.0001)                   F
(PID.TID 0000.0001)     ;
(PID.TID 0000.0001) Ro_SeaLevel =   /* r(1) ( units of r ) */
(PID.TID 0000.0001)                 0.000000000000000E+00
(PID.TID 0000.0001)     ;
(PID.TID 0000.0001) rkFac =   /* minus Vertical index orientation  */
(PID.TID 0000.0001)                 1.000000000000000E+00
(PID.TID 0000.0001)     ;
(PID.TID 0000.0001) horiVertRatio =   /* Ratio on units : Horiz - Vertical */
(PID.TID 0000.0001)                 1.000000000000000E+00
(PID.TID 0000.0001)     ;
(PID.TID 0000.0001) drC =   /* C spacing ( units of r ) */
(PID.TID 0000.0001)                 2.000000000000000E+01,      /* K =  1 */
(PID.TID 0000.0001)                 6.000000000000000E+01,      /* K =  2 */
(PID.TID 0000.0001)                 8.500000000000000E+01,      /* K =  3 */
(PID.TID 0000.0001)                 1.200000000000000E+02,      /* K =  4 */
(PID.TID 0000.0001)                 1.650000000000000E+02,      /* K =  5 */
(PID.TID 0000.0001)                 2.150000000000000E+02,      /* K =  6 */
(PID.TID 0000.0001)                 2.650000000000000E+02,      /* K =  7 */
(PID.TID 0000.0001)                 3.150000000000000E+02,      /* K =  8 */
(PID.TID 0000.0001)                 3.650000000000000E+02,      /* K =  9 */
(PID.TID 0000.0001)                 4.150000000000000E+02,      /* K = 10 */
(PID.TID 0000.0001)                 4.650000000000000E+02,      /* K = 11 */
(PID.TID 0000.0001)                 5.150000000000000E+02,      /* K = 12 */
(PID.TID 0000.0001)                 5.650000000000000E+02,      /* K = 13 */
(PID.TID 0000.0001)                 6.150000000000000E+02,      /* K = 14 */
(PID.TID 0000.0001)                 6.650000000000000E+02       /* K = 15 */
(PID.TID 0000.0001)     ;
(PID.TID 0000.0001) drF =   /* W spacing ( units of r ) */
(PID.TID 0000.0001)                 5.000000000000000E+01,      /* K =  1 */
(PID.TID 0000.0001)                 7.250000000000000E+01,      /* K =  2 */
(PID.TID 0000.0001)                 1.025000000000000E+02,      /* K =  3 */
(PID.TID 0000.0001)                 1.425000000000000E+02,      /* K =  4 */
(PID.TID 0000.0001)                 1.900000000000000E+02,      /* K =  5 */
(PID.TID 0000.0001)                 2.400000000000000E+02,      /* K =  6 */
(PID.TID 0000.0001)                 2.900000000000000E+02,      /* K =  7 */
(PID.TID 0000.0001)                 3.400000000000000E+02,      /* K =  8 */
(PID.TID 0000.0001)                 3.900000000000000E+02,      /* K =  9 */
(PID.TID 0000.0001)                 4.400000000000000E+02,      /* K = 10 */
(PID.TID 0000.0001)                 4.900000000000000E+02,      /* K = 11 */
(PID.TID 0000.0001)                 5.400000000000000E+02,      /* K = 12 */
(PID.TID 0000.0001)                 5.900000000000000E+02,      /* K = 13 */
(PID.TID 0000.0001)                 6.400000000000000E+02,      /* K = 14 */
(PID.TID 0000.0001)                 6.825000000000000E+02       /* K = 15 */
(PID.TID 0000.0001)     ;
(PID.TID 0000.0001) delX =   /* U spacing ( m - cartesian, degrees - spherical ) */
(PID.TID 0000.0001)                 3.000000000000000E+00       /* I =  1 */
(PID.TID 0000.0001)     ;
(PID.TID 0000.0001) delY =   /* V spacing ( m - cartesian, degrees - spherical ) */
(PID.TID 0000.0001)    56 @  3.000000000000000E+00              /* J =  1: 56 */
(PID.TID 0000.0001)     ;
(PID.TID 0000.0001) phiMin =    /* South edge (ignored - cartesian, degrees - spherical ) */
(PID.TID 0000.0001)                -8.400000000000000E+01
(PID.TID 0000.0001)     ;
(PID.TID 0000.0001) thetaMin =    /* West edge ( ignored - cartesian, degrees - spherical ) */
(PID.TID 0000.0001)                 0.000000000000000E+00
(PID.TID 0000.0001)     ;
(PID.TID 0000.0001) rSphere =    /* Radius ( ignored - cartesian, m - spherical ) */
(PID.TID 0000.0001)                 6.370000000000000E+06
(PID.TID 0000.0001)     ;
(PID.TID 0000.0001) xcoord =   /* P-point X coord ( m - cartesian, degrees - spherical ) */
(PID.TID 0000.0001)                 1.500000000000000E+00       /* I =  1 */
(PID.TID 0000.0001)     ;
(PID.TID 0000.0001) ycoord =   /* P-point Y coord ( m - cartesian, degrees - spherical ) */
(PID.TID 0000.0001)                -8.250000000000000E+01,      /* J =  1 */
(PID.TID 0000.0001)                -7.950000000000000E+01,      /* J =  2 */
(PID.TID 0000.0001)                -7.650000000000000E+01,      /* J =  3 */
(PID.TID 0000.0001)                -7.350000000000000E+01,      /* J =  4 */
(PID.TID 0000.0001)                -7.050000000000000E+01,      /* J =  5 */
(PID.TID 0000.0001)                -6.750000000000000E+01,      /* J =  6 */
(PID.TID 0000.0001)                -6.450000000000000E+01,      /* J =  7 */
(PID.TID 0000.0001)                -6.150000000000000E+01,      /* J =  8 */
(PID.TID 0000.0001)                -5.850000000000000E+01,      /* J =  9 */
(PID.TID 0000.0001)                -5.550000000000000E+01,      /* J = 10 */
(PID.TID 0000.0001)                -5.250000000000000E+01,      /* J = 11 */
(PID.TID 0000.0001)                -4.950000000000000E+01,      /* J = 12 */
(PID.TID 0000.0001)                -4.650000000000000E+01,      /* J = 13 */
(PID.TID 0000.0001)                -4.350000000000000E+01,      /* J = 14 */
(PID.TID 0000.0001)                -4.050000000000000E+01,      /* J = 15 */
(PID.TID 0000.0001)                -3.750000000000000E+01,      /* J = 16 */
(PID.TID 0000.0001)                -3.450000000000000E+01,      /* J = 17 */
(PID.TID 0000.0001)                -3.150000000000000E+01,      /* J = 18 */
(PID.TID 0000.0001)                -2.850000000000000E+01,      /* J = 19 */
(PID.TID 0000.0001)                -2.550000000000000E+01,      /* J = 20 */
(PID.TID 0000.0001)                -2.250000000000000E+01,      /* J = 21 */
(PID.TID 0000.0001)                -1.950000000000000E+01,      /* J = 22 */
(PID.TID 0000.0001)                -1.650000000000000E+01,      /* J = 23 */
(PID.TID 0000.0001)                -1.350000000000000E+01,      /* J = 24 */
(PID.TID 0000.0001)                -1.050000000000000E+01,      /* J = 25 */
(PID.TID 0000.0001)                -7.500000000000000E+00,      /* J = 26 */
(PID.TID 0000.0001)                -4.500000000000000E+00,      /* J = 27 */
(PID.TID 0000.0001)                -1.500000000000000E+00,      /* J = 28 */
(PID.TID 0000.0001)                 1.500000000000000E+00,      /* J = 29 */
(PID.TID 0000.0001)                 4.500000000000000E+00,      /* J = 30 */
(PID.TID 0000.0001)                 7.500000000000000E+00,      /* J = 31 */
(PID.TID 0000.0001)                 1.050000000000000E+01,      /* J = 32 */
(PID.TID 0000.0001)                 1.350000000000000E+01,      /* J = 33 */
(PID.TID 0000.0001)                 1.650000000000000E+01,      /* J = 34 */
(PID.TID 0000.0001)                 1.950000000000000E+01,      /* J = 35 */
(PID.TID 0000.0001)                 2.250000000000000E+01,      /* J = 36 */
(PID.TID 0000.0001)                 2.550000000000000E+01,      /* J = 37 */
(PID.TID 0000.0001)                 2.850000000000000E+01,      /* J = 38 */
(PID.TID 0000.0001)                 3.150000000000000E+01,      /* J = 39 */
(PID.TID 0000.0001)                 3.450000000000000E+01,      /* J = 40 */
(PID.TID 0000.0001)                 3.750000000000000E+01,      /* J = 41 */
(PID.TID 0000.0001)                 4.050000000000000E+01,      /* J = 42 */
(PID.TID 0000.0001)                 4.350000000000000E+01,      /* J = 43 */
(PID.TID 0000.0001)                 4.650000000000000E+01,      /* J = 44 */
(PID.TID 0000.0001)                 4.950000000000000E+01,      /* J = 45 */
(PID.TID 0000.0001)                 5.250000000000000E+01,      /* J = 46 */
(PID.TID 0000.0001)                 5.550000000000000E+01,      /* J = 47 */
(PID.TID 0000.0001)                 5.850000000000000E+01,      /* J = 48 */
(PID.TID 0000.0001)                 6.150000000000000E+01,      /* J = 49 */
(PID.TID 0000.0001)                 6.450000000000000E+01,      /* J = 50 */
(PID.TID 0000.0001)                 6.750000000000000E+01,      /* J = 51 */
(PID.TID 0000.0001)                 7.050000000000000E+01,      /* J = 52 */
(PID.TID 0000.0001)                 7.350000000000000E+01,      /* J = 53 */
(PID.TID 0000.0001)                 7.650000000000000E+01,      /* J = 54 */
(PID.TID 0000.0001)                 7.950000000000000E+01,      /* J = 55 */
(PID.TID 0000.0001)                 8.250000000000000E+01       /* J = 56 */
(PID.TID 0000.0001)     ;
(PID.TID 0000.0001) rcoord =   /* P-point R coordinate (  units of r ) */
(PID.TID 0000.0001)                -2.000000000000000E+01,      /* K =  1 */
(PID.TID 0000.0001)                -8.000000000000000E+01,      /* K =  2 */
(PID.TID 0000.0001)                -1.650000000000000E+02,      /* K =  3 */
(PID.TID 0000.0001)                -2.850000000000000E+02,      /* K =  4 */
(PID.TID 0000.0001)                -4.500000000000000E+02,      /* K =  5 */
(PID.TID 0000.0001)                -6.650000000000000E+02,      /* K =  6 */
(PID.TID 0000.0001)                -9.300000000000000E+02,      /* K =  7 */
(PID.TID 0000.0001)                -1.245000000000000E+03,      /* K =  8 */
(PID.TID 0000.0001)                -1.610000000000000E+03,      /* K =  9 */
(PID.TID 0000.0001)                -2.025000000000000E+03,      /* K = 10 */
(PID.TID 0000.0001)                -2.490000000000000E+03,      /* K = 11 */
(PID.TID 0000.0001)                -3.005000000000000E+03,      /* K = 12 */
(PID.TID 0000.0001)                -3.570000000000000E+03,      /* K = 13 */
(PID.TID 0000.0001)                -4.185000000000000E+03,      /* K = 14 */
(PID.TID 0000.0001)                -4.850000000000000E+03       /* K = 15 */
(PID.TID 0000.0001)     ;
(PID.TID 0000.0001) rF =   /* W-Interf. R coordinate (  units of r ) */
(PID.TID 0000.0001)                 0.000000000000000E+00,      /* K =  1 */
(PID.TID 0000.0001)                -5.000000000000000E+01,      /* K =  2 */
(PID.TID 0000.0001)                -1.225000000000000E+02,      /* K =  3 */
(PID.TID 0000.0001)                -2.250000000000000E+02,      /* K =  4 */
(PID.TID 0000.0001)                -3.675000000000000E+02,      /* K =  5 */
(PID.TID 0000.0001)                -5.575000000000000E+02,      /* K =  6 */
(PID.TID 0000.0001)                -7.975000000000000E+02,      /* K =  7 */
(PID.TID 0000.0001)                -1.087500000000000E+03,      /* K =  8 */
(PID.TID 0000.0001)                -1.427500000000000E+03,      /* K =  9 */
(PID.TID 0000.0001)                -1.817500000000000E+03,      /* K = 10 */
(PID.TID 0000.0001)                -2.257500000000000E+03,      /* K = 11 */
(PID.TID 0000.0001)                -2.747500000000000E+03,      /* K = 12 */
(PID.TID 0000.0001)                -3.287500000000000E+03,      /* K = 13 */
(PID.TID 0000.0001)                -3.877500000000000E+03,      /* K = 14 */
(PID.TID 0000.0001)                -4.517500000000000E+03,      /* K = 15 */
(PID.TID 0000.0001)                -5.200000000000000E+03       /* K = 16 */
(PID.TID 0000.0001)     ;
(PID.TID 0000.0001) dxF =  /* dxF(:,1,:,1) ( m - cartesian, degrees - spherical ) */
(PID.TID 0000.0001)                 4.353471677186368E+04       /* I =  1 */
(PID.TID 0000.0001)     ;
(PID.TID 0000.0001) dxF =  /* dxF(1,:,1,:) ( m - cartesian, degrees - spherical ) */
(PID.TID 0000.0001)                 4.353471677186368E+04,      /* J =  1 */
(PID.TID 0000.0001)                 6.078145583759403E+04,      /* J =  2 */
(PID.TID 0000.0001)                 7.786159715774079E+04,      /* J =  3 */
(PID.TID 0000.0001)                 9.472832525217145E+04,      /* J =  4 */
(PID.TID 0000.0001)                 1.113354095915710E+05,      /* J =  5 */
(PID.TID 0000.0001)                 1.276373313121095E+05,      /* J =  6 */
(PID.TID 0000.0001)                 1.435894079794837E+05,      /* J =  7 */
(PID.TID 0000.0001)                 1.591479160603634E+05,      /* J =  8 */
(PID.TID 0000.0001)                 1.742702107655578E+05,      /* J =  9 */
(PID.TID 0000.0001)                 1.889148429364175E+05,      /* J = 10 */
(PID.TID 0000.0001)                 2.030416726540983E+05,      /* J = 11 */
(PID.TID 0000.0001)                 2.166119792602878E+05,      /* J = 12 */
(PID.TID 0000.0001)                 2.295885674878389E+05,      /* J = 13 */
(PID.TID 0000.0001)                 2.419358694104115E+05,      /* J = 14 */
(PID.TID 0000.0001)                 2.536200419316863E+05,      /* J = 15 */
(PID.TID 0000.0001)                 2.646090595469393E+05,      /* J = 16 */
(PID.TID 0000.0001)                 2.748728021227244E+05,      /* J = 17 */
(PID.TID 0000.0001)                 2.843831374540652E+05,      /* J = 18 */
(PID.TID 0000.0001)                 2.931139983728740E+05,      /* J = 19 */
(PID.TID 0000.0001)                 3.010414541962469E+05,      /* J = 20 */
(PID.TID 0000.0001)                 3.081437763188029E+05,      /* J = 21 */
(PID.TID 0000.0001)                 3.144014977692803E+05,      /* J = 22 */
(PID.TID 0000.0001)                 3.197974665681523E+05,      /* J = 23 */
(PID.TID 0000.0001)                 3.243168927400103E+05,      /* J = 24 */
(PID.TID 0000.0001)                 3.279473888518588E+05,      /* J = 25 */
(PID.TID 0000.0001)                 3.306790039662078E+05,      /* J = 26 */
(PID.TID 0000.0001)                 3.325042509159012E+05,      /* J = 27 */
(PID.TID 0000.0001)     2 @  3.334181268259212E+05,             /* J = 28: 29 */
(PID.TID 0000.0001)                 3.325042509159012E+05,      /* J = 30 */
(PID.TID 0000.0001)                 3.306790039662078E+05,      /* J = 31 */
(PID.TID 0000.0001)                 3.279473888518588E+05,      /* J = 32 */
(PID.TID 0000.0001)                 3.243168927400103E+05,      /* J = 33 */
(PID.TID 0000.0001)                 3.197974665681523E+05,      /* J = 34 */
(PID.TID 0000.0001)                 3.144014977692803E+05,      /* J = 35 */
(PID.TID 0000.0001)                 3.081437763188029E+05,      /* J = 36 */
(PID.TID 0000.0001)                 3.010414541962469E+05,      /* J = 37 */
(PID.TID 0000.0001)                 2.931139983728740E+05,      /* J = 38 */
(PID.TID 0000.0001)                 2.843831374540652E+05,      /* J = 39 */
(PID.TID 0000.0001)                 2.748728021227244E+05,      /* J = 40 */
(PID.TID 0000.0001)                 2.646090595469393E+05,      /* J = 41 */
(PID.TID 0000.0001)                 2.536200419316863E+05,      /* J = 42 */
(PID.TID 0000.0001)                 2.419358694104115E+05,      /* J = 43 */
(PID.TID 0000.0001)                 2.295885674878389E+05,      /* J = 44 */
(PID.TID 0000.0001)                 2.166119792602878E+05,      /* J = 45 */
(PID.TID 0000.0001)                 2.030416726540983E+05,      /* J = 46 */
(PID.TID 0000.0001)                 1.889148429364175E+05,      /* J = 47 */
(PID.TID 0000.0001)                 1.742702107655578E+05,      /* J = 48 */
(PID.TID 0000.0001)                 1.591479160603634E+05,      /* J = 49 */
(PID.TID 0000.0001)                 1.435894079794837E+05,      /* J = 50 */
(PID.TID 0000.0001)                 1.276373313121095E+05,      /* J = 51 */
(PID.TID 0000.0001)                 1.113354095915710E+05,      /* J = 52 */
(PID.TID 0000.0001)                 9.472832525217145E+04,      /* J = 53 */
(PID.TID 0000.0001)                 7.786159715774079E+04,      /* J = 54 */
(PID.TID 0000.0001)                 6.078145583759403E+04,      /* J = 55 */
(PID.TID 0000.0001)                 4.353471677186368E+04       /* J = 56 */
(PID.TID 0000.0001)     ;
(PID.TID 0000.0001) dyF =  /* dyF(:,1,:,1) ( m - cartesian, degrees - spherical ) */
(PID.TID 0000.0001)                 3.335324200561164E+05       /* I =  1 */
(PID.TID 0000.0001)     ;
(PID.TID 0000.0001) dyF =  /* dyF(1,:,1,:) ( m - cartesian, degrees - spherical ) */
(PID.TID 0000.0001)    56 @  3.335324200561164E+05              /* J =  1: 56 */
(PID.TID 0000.0001)     ;
(PID.TID 0000.0001) dxG =  /* dxG(:,1,:,1) ( m - cartesian, degrees - spherical ) */
(PID.TID 0000.0001)                 3.486363131840732E+04       /* I =  1 */
(PID.TID 0000.0001)     ;
(PID.TID 0000.0001) dxG =  /* dxG(1,:,1,:) ( m - cartesian, degrees - spherical ) */
(PID.TID 0000.0001)                 3.486363131840732E+04,      /* J =  1 */
(PID.TID 0000.0001)                 5.217596570505215E+04,      /* J =  2 */
(PID.TID 0000.0001)                 6.934528939640634E+04,      /* J =  3 */
(PID.TID 0000.0001)                 8.632454246965688E+04,      /* J =  4 */
(PID.TID 0000.0001)                 1.030671859723435E+05,      /* J =  5 */
(PID.TID 0000.0001)                 1.195273294823922E+05,      /* J =  6 */
(PID.TID 0000.0001)                 1.356598568905725E+05,      /* J =  7 */
(PID.TID 0000.0001)                 1.514205500606167E+05,      /* J =  8 */
(PID.TID 0000.0001)                 1.667662100280582E+05,      /* J =  9 */
(PID.TID 0000.0001)                 1.816547754055899E+05,      /* J = 10 */
(PID.TID 0000.0001)                 1.960454376704035E+05,      /* J = 11 */
(PID.TID 0000.0001)                 2.098987530175138E+05,      /* J = 12 */
(PID.TID 0000.0001)                 2.231767504724865E+05,      /* J = 13 */
(PID.TID 0000.0001)                 2.358430359672399E+05,      /* J = 14 */
(PID.TID 0000.0001)                 2.478628920936555E+05,      /* J = 15 */
(PID.TID 0000.0001)                 2.592033732615809E+05,      /* J = 16 */
(PID.TID 0000.0001)                 2.698333960004017E+05,      /* J = 17 */
(PID.TID 0000.0001)                 2.797238241566748E+05,      /* J = 18 */
(PID.TID 0000.0001)                 2.888475487542992E+05,      /* J = 19 */
(PID.TID 0000.0001)                 2.971795622983349E+05,      /* J = 20 */
(PID.TID 0000.0001)                 3.046970273188090E+05,      /* J = 21 */
(PID.TID 0000.0001)                 3.113793389666330E+05,      /* J = 22 */
(PID.TID 0000.0001)                 3.172081814900619E+05,      /* J = 23 */
(PID.TID 0000.0001)                 3.221675784368968E+05,      /* J = 24 */
(PID.TID 0000.0001)                 3.262439364448301E+05,      /* J = 25 */
(PID.TID 0000.0001)                 3.294260824999060E+05,      /* J = 26 */
(PID.TID 0000.0001)                 3.317052945609760E+05,      /* J = 27 */
(PID.TID 0000.0001)                 3.330753254662066E+05,      /* J = 28 */
(PID.TID 0000.0001)                 3.335324200561164E+05,      /* J = 29 */
(PID.TID 0000.0001)                 3.330753254662066E+05,      /* J = 30 */
(PID.TID 0000.0001)                 3.317052945609760E+05,      /* J = 31 */
(PID.TID 0000.0001)                 3.294260824999060E+05,      /* J = 32 */
(PID.TID 0000.0001)                 3.262439364448301E+05,      /* J = 33 */
(PID.TID 0000.0001)                 3.221675784368968E+05,      /* J = 34 */
(PID.TID 0000.0001)                 3.172081814900619E+05,      /* J = 35 */
(PID.TID 0000.0001)                 3.113793389666330E+05,      /* J = 36 */
(PID.TID 0000.0001)                 3.046970273188090E+05,      /* J = 37 */
(PID.TID 0000.0001)                 2.971795622983349E+05,      /* J = 38 */
(PID.TID 0000.0001)                 2.888475487542992E+05,      /* J = 39 */
(PID.TID 0000.0001)                 2.797238241566748E+05,      /* J = 40 */
(PID.TID 0000.0001)                 2.698333960004017E+05,      /* J = 41 */
(PID.TID 0000.0001)                 2.592033732615809E+05,      /* J = 42 */
(PID.TID 0000.0001)                 2.478628920936555E+05,      /* J = 43 */
(PID.TID 0000.0001)                 2.358430359672399E+05,      /* J = 44 */
(PID.TID 0000.0001)                 2.231767504724865E+05,      /* J = 45 */
(PID.TID 0000.0001)                 2.098987530175138E+05,      /* J = 46 */
(PID.TID 0000.0001)                 1.960454376704035E+05,      /* J = 47 */
(PID.TID 0000.0001)                 1.816547754055899E+05,      /* J = 48 */
(PID.TID 0000.0001)                 1.667662100280582E+05,      /* J = 49 */
(PID.TID 0000.0001)                 1.514205500606167E+05,      /* J = 50 */
(PID.TID 0000.0001)                 1.356598568905725E+05,      /* J = 51 */
(PID.TID 0000.0001)                 1.195273294823922E+05,      /* J = 52 */
(PID.TID 0000.0001)                 1.030671859723435E+05,      /* J = 53 */
(PID.TID 0000.0001)                 8.632454246965688E+04,      /* J = 54 */
(PID.TID 0000.0001)                 6.934528939640634E+04,      /* J = 55 */
(PID.TID 0000.0001)                 5.217596570505215E+04       /* J = 56 */
(PID.TID 0000.0001)     ;
(PID.TID 0000.0001) dyG =  /* dyG(:,1,:,1) ( m - cartesian, degrees - spherical ) */
(PID.TID 0000.0001)                 3.335324200561164E+05       /* I =  1 */
(PID.TID 0000.0001)     ;
(PID.TID 0000.0001) dyG =  /* dyG(1,:,1,:) ( m - cartesian, degrees - spherical ) */
(PID.TID 0000.0001)    56 @  3.335324200561164E+05              /* J =  1: 56 */
(PID.TID 0000.0001)     ;
(PID.TID 0000.0001) dxC =  /* dxC(:,1,:,1) ( m - cartesian, degrees - spherical ) */
(PID.TID 0000.0001)                 4.353471677186368E+04       /* I =  1 */
(PID.TID 0000.0001)     ;
(PID.TID 0000.0001) dxC =  /* dxC(1,:,1,:) ( m - cartesian, degrees - spherical ) */
(PID.TID 0000.0001)                 4.353471677186368E+04,      /* J =  1 */
(PID.TID 0000.0001)                 6.078145583759403E+04,      /* J =  2 */
(PID.TID 0000.0001)                 7.786159715774079E+04,      /* J =  3 */
(PID.TID 0000.0001)                 9.472832525217145E+04,      /* J =  4 */
(PID.TID 0000.0001)                 1.113354095915710E+05,      /* J =  5 */
(PID.TID 0000.0001)                 1.276373313121095E+05,      /* J =  6 */
(PID.TID 0000.0001)                 1.435894079794837E+05,      /* J =  7 */
(PID.TID 0000.0001)                 1.591479160603634E+05,      /* J =  8 */
(PID.TID 0000.0001)                 1.742702107655578E+05,      /* J =  9 */
(PID.TID 0000.0001)                 1.889148429364175E+05,      /* J = 10 */
(PID.TID 0000.0001)                 2.030416726540983E+05,      /* J = 11 */
(PID.TID 0000.0001)                 2.166119792602878E+05,      /* J = 12 */
(PID.TID 0000.0001)                 2.295885674878389E+05,      /* J = 13 */
(PID.TID 0000.0001)                 2.419358694104115E+05,      /* J = 14 */
(PID.TID 0000.0001)                 2.536200419316863E+05,      /* J = 15 */
(PID.TID 0000.0001)                 2.646090595469393E+05,      /* J = 16 */
(PID.TID 0000.0001)                 2.748728021227244E+05,      /* J = 17 */
(PID.TID 0000.0001)                 2.843831374540652E+05,      /* J = 18 */
(PID.TID 0000.0001)                 2.931139983728740E+05,      /* J = 19 */
(PID.TID 0000.0001)                 3.010414541962469E+05,      /* J = 20 */
(PID.TID 0000.0001)                 3.081437763188029E+05,      /* J = 21 */
(PID.TID 0000.0001)                 3.144014977692803E+05,      /* J = 22 */
(PID.TID 0000.0001)                 3.197974665681523E+05,      /* J = 23 */
(PID.TID 0000.0001)                 3.243168927400103E+05,      /* J = 24 */
(PID.TID 0000.0001)                 3.279473888518588E+05,      /* J = 25 */
(PID.TID 0000.0001)                 3.306790039662078E+05,      /* J = 26 */
(PID.TID 0000.0001)                 3.325042509159012E+05,      /* J = 27 */
(PID.TID 0000.0001)     2 @  3.334181268259212E+05,             /* J = 28: 29 */
(PID.TID 0000.0001)                 3.325042509159012E+05,      /* J = 30 */
(PID.TID 0000.0001)                 3.306790039662078E+05,      /* J = 31 */
(PID.TID 0000.0001)                 3.279473888518588E+05,      /* J = 32 */
(PID.TID 0000.0001)                 3.243168927400103E+05,      /* J = 33 */
(PID.TID 0000.0001)                 3.197974665681523E+05,      /* J = 34 */
(PID.TID 0000.0001)                 3.144014977692803E+05,      /* J = 35 */
(PID.TID 0000.0001)                 3.081437763188029E+05,      /* J = 36 */
(PID.TID 0000.0001)                 3.010414541962469E+05,      /* J = 37 */
(PID.TID 0000.0001)                 2.931139983728740E+05,      /* J = 38 */
(PID.TID 0000.0001)                 2.843831374540652E+05,      /* J = 39 */
[...]
(PID.TID 0000.0001) %MON dynstat_vvel_del2            =   7.2995045293341E-05
(PID.TID 0000.0001) %MON dynstat_wvel_max             =   1.6288507001787E-06
(PID.TID 0000.0001) %MON dynstat_wvel_min             =  -8.1371265213526E-07
(PID.TID 0000.0001) %MON dynstat_wvel_mean            =  -1.3646101274559E-23
(PID.TID 0000.0001) %MON dynstat_wvel_sd              =   2.8589054428387E-07
(PID.TID 0000.0001) %MON dynstat_wvel_del2            =   3.6912425055199E-08
(PID.TID 0000.0001) %MON dynstat_theta_max            =   2.6673495137942E+01
(PID.TID 0000.0001) %MON dynstat_theta_min            =  -9.3077060878005E-01
(PID.TID 0000.0001) %MON dynstat_theta_mean           =   2.2243048519639E+00
(PID.TID 0000.0001) %MON dynstat_theta_sd             =   3.9281062552943E+00
(PID.TID 0000.0001) %MON dynstat_theta_del2           =   4.1670880526435E-02
(PID.TID 0000.0001) %MON dynstat_salt_max             =   3.4700000000000E+01
(PID.TID 0000.0001) %MON dynstat_salt_min             =   3.4700000000000E+01
(PID.TID 0000.0001) %MON dynstat_salt_mean            =   3.4700000000000E+01
(PID.TID 0000.0001) %MON dynstat_salt_sd              =   4.9737991503207E-14
(PID.TID 0000.0001) %MON dynstat_salt_del2            =   0.0000000000000E+00
(PID.TID 0000.0001) %MON advcfl_uvel_max              =   1.0010560567898E-01
(PID.TID 0000.0001) %MON advcfl_vvel_max              =   5.9530214364741E-03
(PID.TID 0000.0001) %MON advcfl_wvel_max              =   2.3455450082573E-03
(PID.TID 0000.0001) %MON advcfl_W_hf_max              =   7.0366350247719E-03
(PID.TID 0000.0001) %MON ke_max                       =   7.4646016965007E-02
(PID.TID 0000.0001) %MON ke_mean                      =   2.4106314197458E-03
(PID.TID 0000.0001) %MON ke_volint                    =   1.8210542999323E+13
(PID.TID 0000.0001) %MON ke_volmean                   =   8.3443428964715E-04
(PID.TID 0000.0001) %MON ke_vol                       =   2.1823819113454E+16
(PID.TID 0000.0001) %MON surfExpan_theta_mean         =   2.1782810700619E-06
(PID.TID 0000.0001) %MON surfExpan_salt_mean          =   1.5416665165073E-22
(PID.TID 0000.0001) // =======================================================
(PID.TID 0000.0001) // End MONITOR dynamic field statistics
(PID.TID 0000.0001) // =======================================================
 cg2d: Sum(rhs),rhsMax =   1.99840144432528E-15  1.47828517983056E+00
(PID.TID 0000.0001)                    cg2d_init_res =    4.42243192412858E-03
(PID.TID 0000.0001)                       cg2d_iters =    27
(PID.TID 0000.0001)                         cg2d_res =    2.43242689645429E-17
(PID.TID 0000.0001) // =======================================================
(PID.TID 0000.0001) // Begin MONITOR dynamic field statistics
(PID.TID 0000.0001) // =======================================================
(PID.TID 0000.0001) %MON time_tsnumber                =                 36019
(PID.TID 0000.0001) %MON time_secondsf                =   3.1120416000000E+09
(PID.TID 0000.0001) %MON dynstat_eta_max              =   1.6146761366358E+00
(PID.TID 0000.0001) %MON dynstat_eta_min              =  -3.9229473671135E+00
(PID.TID 0000.0001) %MON dynstat_eta_mean             =  -1.7654919758340E-16
(PID.TID 0000.0001) %MON dynstat_eta_sd               =   1.6480727369865E+00
(PID.TID 0000.0001) %MON dynstat_eta_del2             =   1.3948260216317E-02
(PID.TID 0000.0001) %MON dynstat_uvel_max             =   1.4298960049060E-01
(PID.TID 0000.0001) %MON dynstat_uvel_min             =  -3.8630766635468E-01
(PID.TID 0000.0001) %MON dynstat_uvel_mean            =   1.2798773806012E-02
(PID.TID 0000.0001) %MON dynstat_uvel_sd              =   3.8753498253253E-02
(PID.TID 0000.0001) %MON dynstat_uvel_del2            =   6.1908305523315E-04
(PID.TID 0000.0001) %MON dynstat_vvel_max             =   2.2973558755586E-02
(PID.TID 0000.0001) %MON dynstat_vvel_min             =  -2.2973558755557E-02
(PID.TID 0000.0001) %MON dynstat_vvel_mean            =   1.0085738986502E-15
(PID.TID 0000.0001) %MON dynstat_vvel_sd              =   1.5570317288155E-03
(PID.TID 0000.0001) %MON dynstat_vvel_del2            =   7.3007074697785E-05
(PID.TID 0000.0001) %MON dynstat_wvel_max             =   1.6704552335744E-06
(PID.TID 0000.0001) %MON dynstat_wvel_min             =  -8.2032611515426E-07
(PID.TID 0000.0001) %MON dynstat_wvel_mean            =  -8.6904610143457E-24
(PID.TID 0000.0001) %MON dynstat_wvel_sd              =   2.9746458752031E-07
(PID.TID 0000.0001) %MON dynstat_wvel_del2            =   3.6912578136424E-08
(PID.TID 0000.0001) %MON dynstat_theta_max            =   2.6671385789727E+01
(PID.TID 0000.0001) %MON dynstat_theta_min            =  -9.3077126401761E-01
(PID.TID 0000.0001) %MON dynstat_theta_mean           =   2.2242583096998E+00
(PID.TID 0000.0001) %MON dynstat_theta_sd             =   3.9279841200773E+00
(PID.TID 0000.0001) %MON dynstat_theta_del2           =   4.1675439172373E-02
(PID.TID 0000.0001) %MON dynstat_salt_max             =   3.4700000000000E+01
(PID.TID 0000.0001) %MON dynstat_salt_min             =   3.4700000000000E+01
(PID.TID 0000.0001) %MON dynstat_salt_mean            =   3.4700000000000E+01
(PID.TID 0000.0001) %MON dynstat_salt_sd              =   4.9737991503207E-14
(PID.TID 0000.0001) %MON dynstat_salt_del2            =   0.0000000000000E+00
(PID.TID 0000.0001) %MON advcfl_uvel_max              =   1.0010548223873E-01
(PID.TID 0000.0001) %MON advcfl_vvel_max              =   5.9511920195004E-03
(PID.TID 0000.0001) %MON advcfl_wvel_max              =   2.4054555363471E-03
(PID.TID 0000.0001) %MON advcfl_W_hf_max              =   7.2163666090414E-03
(PID.TID 0000.0001) %MON ke_max                       =   7.4645803331216E-02
(PID.TID 0000.0001) %MON ke_mean                      =   2.4101177627462E-03
(PID.TID 0000.0001) %MON ke_volint                    =   1.8203752342848E+13
(PID.TID 0000.0001) %MON ke_volmean                   =   8.3412313162119E-04
(PID.TID 0000.0001) %MON ke_vol                       =   2.1823819113454E+16
(PID.TID 0000.0001) %MON surfExpan_theta_mean         =   2.5907126766407E-06
(PID.TID 0000.0001) %MON surfExpan_salt_mean          =   2.6668494364181E-22
(PID.TID 0000.0001) // =======================================================
(PID.TID 0000.0001) // End MONITOR dynamic field statistics
(PID.TID 0000.0001) // =======================================================
 cg2d: Sum(rhs),rhsMax =   5.44009282066327E-15  1.47869532375124E+00
(PID.TID 0000.0001)                    cg2d_init_res =    4.90881046712479E-03
(PID.TID 0000.0001)                       cg2d_iters =    27
(PID.TID 0000.0001)                         cg2d_res =    4.93999154257933E-18
(PID.TID 0000.0001) // =======================================================
(PID.TID 0000.0001) // Begin MONITOR dynamic field statistics
(PID.TID 0000.0001) // =======================================================
(PID.TID 0000.0001) %MON time_tsnumber                =                 36020
(PID.TID 0000.0001) %MON time_secondsf                =   3.1121280000000E+09
(PID.TID 0000.0001) %MON dynstat_eta_max              =   1.6151541906610E+00
(PID.TID 0000.0001) %MON dynstat_eta_min              =  -3.9247893906125E+00
(PID.TID 0000.0001) %MON dynstat_eta_mean             =  -4.3617502382565E-17
(PID.TID 0000.0001) %MON dynstat_eta_sd               =   1.6489385963166E+00
(PID.TID 0000.0001) %MON dynstat_eta_del2             =   1.3949855547134E-02
(PID.TID 0000.0001) %MON dynstat_uvel_max             =   1.4296491663069E-01
(PID.TID 0000.0001) %MON dynstat_uvel_min             =  -3.8630717399939E-01
(PID.TID 0000.0001) %MON dynstat_uvel_mean            =   1.2785763701173E-02
(PID.TID 0000.0001) %MON dynstat_uvel_sd              =   3.8748698051914E-02
(PID.TID 0000.0001) %MON dynstat_uvel_del2            =   6.1902183599004E-04
(PID.TID 0000.0001) %MON dynstat_vvel_max             =   2.2969557295492E-02
(PID.TID 0000.0001) %MON dynstat_vvel_min             =  -2.2969557295462E-02
(PID.TID 0000.0001) %MON dynstat_vvel_mean            =   5.6197760693182E-16
(PID.TID 0000.0001) %MON dynstat_vvel_sd              =   1.5583122464436E-03
(PID.TID 0000.0001) %MON dynstat_vvel_del2            =   7.3013888779183E-05
(PID.TID 0000.0001) %MON dynstat_wvel_max             =   1.6982985144210E-06
(PID.TID 0000.0001) %MON dynstat_wvel_min             =  -8.2755992931330E-07
(PID.TID 0000.0001) %MON dynstat_wvel_mean            =   1.0061009358010E-24
(PID.TID 0000.0001) %MON dynstat_wvel_sd              =   3.0621337673253E-07
(PID.TID 0000.0001) %MON dynstat_wvel_del2            =   3.6912674167962E-08
(PID.TID 0000.0001) %MON dynstat_theta_max            =   2.6669077977851E+01
(PID.TID 0000.0001) %MON dynstat_theta_min            =  -9.3077191889916E-01
(PID.TID 0000.0001) %MON dynstat_theta_mean           =   2.2242051370098E+00
(PID.TID 0000.0001) %MON dynstat_theta_sd             =   3.9278418130476E+00
(PID.TID 0000.0001) %MON dynstat_theta_del2           =   4.1680335489558E-02
(PID.TID 0000.0001) %MON dynstat_salt_max             =   3.4700000000000E+01
(PID.TID 0000.0001) %MON dynstat_salt_min             =   3.4700000000000E+01
(PID.TID 0000.0001) %MON dynstat_salt_mean            =   3.4700000000000E+01
(PID.TID 0000.0001) %MON dynstat_salt_sd              =   4.9737991503207E-14
(PID.TID 0000.0001) %MON dynstat_salt_del2            =   0.0000000000000E+00
(PID.TID 0000.0001) %MON advcfl_uvel_max              =   1.0010535465270E-01
(PID.TID 0000.0001) %MON advcfl_vvel_max              =   5.9501554601397E-03
(PID.TID 0000.0001) %MON advcfl_wvel_max              =   2.4455498607662E-03
(PID.TID 0000.0001) %MON advcfl_W_hf_max              =   7.3366495822985E-03
(PID.TID 0000.0001) %MON ke_max                       =   7.4645589303308E-02
(PID.TID 0000.0001) %MON ke_mean                      =   2.4095402197498E-03
(PID.TID 0000.0001) %MON ke_volint                    =   1.8196103177310E+13
(PID.TID 0000.0001) %MON ke_volmean                   =   8.3377263542718E-04
(PID.TID 0000.0001) %MON ke_vol                       =   2.1823819113454E+16
(PID.TID 0000.0001) %MON surfExpan_theta_mean         =   2.8684097173471E-06
(PID.TID 0000.0001) %MON surfExpan_salt_mean          =  -3.6726403919712E-22
(PID.TID 0000.0001) // =======================================================
(PID.TID 0000.0001) // End MONITOR dynamic field statistics
(PID.TID 0000.0001) // =======================================================
(PID.TID 0000.0001)   Seconds in section "ALL                    [THE_MODEL_MAIN]":
(PID.TID 0000.0001)           User time:  0.629999995
(PID.TID 0000.0001)         System time:  0.119999997
(PID.TID 0000.0001)     Wall clock time:  0.74635601
(PID.TID 0000.0001)          No. starts: 1
(PID.TID 0000.0001)           No. stops: 1
(PID.TID 0000.0001)   Seconds in section "INITIALISE_FIXED       [THE_MODEL_MAIN]":
(PID.TID 0000.0001)           User time:  0.0599999987
(PID.TID 0000.0001)         System time:  0.00999999978
(PID.TID 0000.0001)     Wall clock time:  0.0708580017
(PID.TID 0000.0001)          No. starts: 1
(PID.TID 0000.0001)           No. stops: 1
(PID.TID 0000.0001)   Seconds in section "THE_MAIN_LOOP          [THE_MODEL_MAIN]":
(PID.TID 0000.0001)           User time:  0.550000016
(PID.TID 0000.0001)         System time:  0.040000001
(PID.TID 0000.0001)     Wall clock time:  0.594446063
(PID.TID 0000.0001)          No. starts: 1
(PID.TID 0000.0001)           No. stops: 1
(PID.TID 0000.0001)   Seconds in section "INITIALISE_VARIA    [THE_MAIN_LOOP]":
(PID.TID 0000.0001)           User time:  0.0300000049
(PID.TID 0000.0001)         System time:  0.
(PID.TID 0000.0001)     Wall clock time:  0.0307980776
(PID.TID 0000.0001)          No. starts: 1
(PID.TID 0000.0001)           No. stops: 1
(PID.TID 0000.0001)   Seconds in section "WRITE_STATE         [THE_MAIN_LOOP]":
(PID.TID 0000.0001)           User time:  0.00999999791
(PID.TID 0000.0001)         System time:  0.0199999996
(PID.TID 0000.0001)     Wall clock time:  0.0311000347
(PID.TID 0000.0001)          No. starts: 1
(PID.TID 0000.0001)           No. stops: 1
(PID.TID 0000.0001)   Seconds in section "MONITOR             [THE_MAIN_LOOP]":
(PID.TID 0000.0001)           User time:  0.
(PID.TID 0000.0001)         System time:  0.
(PID.TID 0000.0001)     Wall clock time:  0.00187194347
(PID.TID 0000.0001)          No. starts: 1
(PID.TID 0000.0001)           No. stops: 1
(PID.TID 0000.0001)   Seconds in section "MAIN LOOP           [THE_MAIN_LOOP]":
(PID.TID 0000.0001)           User time:  0.510000013
(PID.TID 0000.0001)         System time:  0.0200000014
(PID.TID 0000.0001)     Wall clock time:  0.530568957
(PID.TID 0000.0001)          No. starts: 1
(PID.TID 0000.0001)           No. stops: 1
(PID.TID 0000.0001)   Seconds in section "FORWARD_STEP        [THE_MAIN_LOOP]":
(PID.TID 0000.0001)           User time:  0.510000013
(PID.TID 0000.0001)         System time:  0.0200000014
(PID.TID 0000.0001)     Wall clock time:  0.530149937
(PID.TID 0000.0001)          No. starts: 20
(PID.TID 0000.0001)           No. stops: 20
(PID.TID 0000.0001)   Seconds in section "UPDATE_ETAH        [FORWARD_STEP]":
(PID.TID 0000.0001)           User time:  0.
(PID.TID 0000.0001)         System time:  0.
(PID.TID 0000.0001)     Wall clock time:  0.000462889671
(PID.TID 0000.0001)          No. starts: 20
(PID.TID 0000.0001)           No. stops: 20
(PID.TID 0000.0001)   Seconds in section "EXTERNAL_FIELDS_LOAD[FORWARD_STEP]":
(PID.TID 0000.0001)           User time:  0.
(PID.TID 0000.0001)         System time:  0.
(PID.TID 0000.0001)     Wall clock time:  0.000394821167
(PID.TID 0000.0001)          No. starts: 20
(PID.TID 0000.0001)           No. stops: 20
(PID.TID 0000.0001)   Seconds in section "THERMODYNAMICS      [FORWARD_STEP]":
(PID.TID 0000.0001)           User time:  0.299999952
(PID.TID 0000.0001)         System time:  0.
(PID.TID 0000.0001)     Wall clock time:  0.231532931
(PID.TID 0000.0001)          No. starts: 20
(PID.TID 0000.0001)           No. stops: 20
(PID.TID 0000.0001)   Seconds in section "BLOCKING_EXCHANGES  [FORWARD_STEP]":
(PID.TID 0000.0001)           User time:  0.
(PID.TID 0000.0001)         System time:  0.
(PID.TID 0000.0001)     Wall clock time:  0.0253078938
(PID.TID 0000.0001)          No. starts: 40
(PID.TID 0000.0001)           No. stops: 40
(PID.TID 0000.0001)   Seconds in section "DYNAMICS            [FORWARD_STEP]":
(PID.TID 0000.0001)           User time:  0.100000069
(PID.TID 0000.0001)         System time:  0.
(PID.TID 0000.0001)     Wall clock time:  0.153298855
(PID.TID 0000.0001)          No. starts: 20
(PID.TID 0000.0001)           No. stops: 20
(PID.TID 0000.0001)   Seconds in section "SOLVE_FOR_PRESSURE  [FORWARD_STEP]":
(PID.TID 0000.0001)           User time:  0.0399999991
(PID.TID 0000.0001)         System time:  0.
(PID.TID 0000.0001)     Wall clock time:  0.0221420527
(PID.TID 0000.0001)          No. starts: 20
(PID.TID 0000.0001)           No. stops: 20
(PID.TID 0000.0001)   Seconds in section "THE_CORRECTION_STEP [FORWARD_STEP]":
(PID.TID 0000.0001)           User time:  0.0600000024
(PID.TID 0000.0001)         System time:  0.
(PID.TID 0000.0001)     Wall clock time:  0.0216580629
(PID.TID 0000.0001)          No. starts: 20
(PID.TID 0000.0001)           No. stops: 20
(PID.TID 0000.0001)   Seconds in section "MONITOR             [FORWARD_STEP]":
(PID.TID 0000.0001)           User time:  0.
(PID.TID 0000.0001)         System time:  0.
(PID.TID 0000.0001)     Wall clock time:  0.0381369591
(PID.TID 0000.0001)          No. starts: 20
(PID.TID 0000.0001)           No. stops: 20
(PID.TID 0000.0001)   Seconds in section "DO_THE_MODEL_IO     [FORWARD_STEP]":
(PID.TID 0000.0001)           User time:  0.00999999046
(PID.TID 0000.0001)         System time:  0.0200000014
(PID.TID 0000.0001)     Wall clock time:  0.0319720507
(PID.TID 0000.0001)          No. starts: 20
(PID.TID 0000.0001)           No. stops: 20
(PID.TID 0000.0001)   Seconds in section "WRITE_CHECKPOINT    [FORWARD_STEP]":
(PID.TID 0000.0001)           User time:  0.
(PID.TID 0000.0001)         System time:  0.
(PID.TID 0000.0001)     Wall clock time:  0.000402927399
(PID.TID 0000.0001)          No. starts: 20
(PID.TID 0000.0001)           No. stops: 20
(PID.TID 0000.0001)   Seconds in section "WRITE_CHECKPOINT       [THE_MODEL_MAIN]":
(PID.TID 0000.0001)           User time:  0.0199999809
(PID.TID 0000.0001)         System time:  0.0699999966
(PID.TID 0000.0001)     Wall clock time:  0.0809550285
(PID.TID 0000.0001)          No. starts: 1
(PID.TID 0000.0001)           No. stops: 1
(PID.TID 0000.0001) // ======================================================
(PID.TID 0000.0001) // Tile <-> Tile communication statistics
(PID.TID 0000.0001) // ======================================================
(PID.TID 0000.0001) // o Tile number: 000001
(PID.TID 0000.0001) //         No. X exchanges =              0
(PID.TID 0000.0001) //            Max. X spins =              0
(PID.TID 0000.0001) //            Min. X spins =     1000000000
(PID.TID 0000.0001) //          Total. X spins =              0
(PID.TID 0000.0001) //            Avg. X spins =       0.00E+00
(PID.TID 0000.0001) //         No. Y exchanges =              0
(PID.TID 0000.0001) //            Max. Y spins =              0
(PID.TID 0000.0001) //            Min. Y spins =     1000000000
(PID.TID 0000.0001) //          Total. Y spins =              0
(PID.TID 0000.0001) //            Avg. Y spins =       0.00E+00
(PID.TID 0000.0001) // o Tile number: 000002
(PID.TID 0000.0001) //         No. X exchanges =              0
(PID.TID 0000.0001) //            Max. X spins =              0
(PID.TID 0000.0001) //            Min. X spins =     1000000000
(PID.TID 0000.0001) //          Total. X spins =              0
(PID.TID 0000.0001) //            Avg. X spins =       0.00E+00
(PID.TID 0000.0001) //         No. Y exchanges =              0
(PID.TID 0000.0001) //            Max. Y spins =              0
(PID.TID 0000.0001) //            Min. Y spins =     1000000000
(PID.TID 0000.0001) //          Total. Y spins =              0
(PID.TID 0000.0001) //            Avg. Y spins =       0.00E+00
(PID.TID 0000.0001) // o Tile number: 000003
(PID.TID 0000.0001) //         No. X exchanges =              0
(PID.TID 0000.0001) //            Max. X spins =              0
(PID.TID 0000.0001) //            Min. X spins =     1000000000
(PID.TID 0000.0001) //          Total. X spins =              0
(PID.TID 0000.0001) //            Avg. X spins =       0.00E+00
(PID.TID 0000.0001) //         No. Y exchanges =              0
(PID.TID 0000.0001) //            Max. Y spins =              0
(PID.TID 0000.0001) //            Min. Y spins =     1000000000
(PID.TID 0000.0001) //          Total. Y spins =              0
(PID.TID 0000.0001) //            Avg. Y spins =       0.00E+00
(PID.TID 0000.0001) // o Tile number: 000004
(PID.TID 0000.0001) //         No. X exchanges =              0
(PID.TID 0000.0001) //            Max. X spins =              0
(PID.TID 0000.0001) //            Min. X spins =     1000000000
(PID.TID 0000.0001) //          Total. X spins =              0
(PID.TID 0000.0001) //            Avg. X spins =       0.00E+00
(PID.TID 0000.0001) //         No. Y exchanges =              0
(PID.TID 0000.0001) //            Max. Y spins =              0
(PID.TID 0000.0001) //            Min. Y spins =     1000000000
(PID.TID 0000.0001) //          Total. Y spins =              0
(PID.TID 0000.0001) //            Avg. Y spins =       0.00E+00
(PID.TID 0000.0001) // o Thread number: 000001
(PID.TID 0000.0001) //            No. barriers =          12354
(PID.TID 0000.0001) //      Max. barrier spins =              1
(PID.TID 0000.0001) //      Min. barrier spins =              1
(PID.TID 0000.0001) //     Total barrier spins =          12354
(PID.TID 0000.0001) //      Avg. barrier spins =       1.00E+00
