(PID.TID 0000.0001) 
(PID.TID 0000.0001) // ======================================================
(PID.TID 0000.0001) //                      MITgcm UV
(PID.TID 0000.0001) //                      =========
(PID.TID 0000.0001) // ======================================================
(PID.TID 0000.0001) // execution environment starting up...
(PID.TID 0000.0001) 
(PID.TID 0000.0001) // MITgcmUV version:  checkpoint64w
(PID.TID 0000.0001) // Build user:        jmc
(PID.TID 0000.0001) // Build host:        baudelaire
(PID.TID 0000.0001) // Build date:        Sun May 11 21:49:30 EDT 2014
(PID.TID 0000.0001) 
(PID.TID 0000.0001) // =======================================================
(PID.TID 0000.0001) // Execution Environment parameter file "eedata"
(PID.TID 0000.0001) // =======================================================
(PID.TID 0000.0001) ># Example "eedata" file
(PID.TID 0000.0001) ># Lines beginning "#" are comments
(PID.TID 0000.0001) ># nTx - No. threads per process in X
(PID.TID 0000.0001) ># nTy - No. threads per process in Y
(PID.TID 0000.0001) > &EEPARMS
(PID.TID 0000.0001) > useCubedSphereExchange=.TRUE.,
(PID.TID 0000.0001) ># Activate one line below to support 2, 3 or 6 way multi-threading
(PID.TID 0000.0001) >#nTx=2,
(PID.TID 0000.0001) >#nTx=3,
(PID.TID 0000.0001) >#nTx=6,
(PID.TID 0000.0001) > /
(PID.TID 0000.0001) ># Note: Some systems use & as the
(PID.TID 0000.0001) ># namelist terminator. Other systems
(PID.TID 0000.0001) ># use a / character (as shown here).
(PID.TID 0000.0001) 
(PID.TID 0000.0001) // =======================================================
(PID.TID 0000.0001) // Computational Grid Specification ( see files "SIZE.h" )
(PID.TID 0000.0001) //                                  ( and "eedata"       )
(PID.TID 0000.0001) // =======================================================
(PID.TID 0000.0001)      nPx =    1 ; /* No. processes in X */
(PID.TID 0000.0001)      nPy =    1 ; /* No. processes in Y */
(PID.TID 0000.0001)      nSx =    6 ; /* No. tiles in X per process */
(PID.TID 0000.0001)      nSy =    1 ; /* No. tiles in Y per process */
(PID.TID 0000.0001)      sNx =   32 ; /* Tile size in X */
(PID.TID 0000.0001)      sNy =   32 ; /* Tile size in Y */
(PID.TID 0000.0001)      OLx =    2 ; /* Tile overlap distance in X */
(PID.TID 0000.0001)      OLy =    2 ; /* Tile overlap distance in Y */
(PID.TID 0000.0001)      nTx =    1 ; /* No. threads in X per process */
(PID.TID 0000.0001)      nTy =    1 ; /* No. threads in Y per process */
(PID.TID 0000.0001)       Nr =   10 ; /* No. levels in the vertical   */
(PID.TID 0000.0001)       Nx =  192 ; /* Total domain size in X ( = nPx*nSx*sNx ) */
(PID.TID 0000.0001)       Ny =   32 ; /* Total domain size in Y ( = nPy*nSy*sNy ) */
(PID.TID 0000.0001)   nTiles =    6 ; /* Total no. tiles per process ( = nSx*nSy ) */
(PID.TID 0000.0001)   nProcs =    1 ; /* Total no. processes ( = nPx*nPy ) */
(PID.TID 0000.0001) nThreads =    1 ; /* Total no. threads per process ( = nTx*nTy ) */
(PID.TID 0000.0001) usingMPI =    F ; /* Flag used to control whether MPI is in use */
(PID.TID 0000.0001)                   /*  note: To execute a program with MPI calls */
(PID.TID 0000.0001)                   /*  it must be launched appropriately e.g     */
(PID.TID 0000.0001)                   /*  "mpirun -np 64 ......"                    */
(PID.TID 0000.0001) useCoupler=    F ;/* Flag used to control communications with   */
(PID.TID 0000.0001)                   /*  other model components, through a coupler */
(PID.TID 0000.0001) debugMode =    F ; /* print debug msg. (sequence of S/R calls)  */
(PID.TID 0000.0001) printMapIncludesZeros=    F ; /* print zeros in Std.Output maps */
(PID.TID 0000.0001) maxLengthPrt1D=   65 /* maxLength of 1D array printed to StdOut */
(PID.TID 0000.0001) 
(PID.TID 0000.0001) // ======================================================
(PID.TID 0000.0001) // Mapping of tiles to threads
(PID.TID 0000.0001) // ======================================================
(PID.TID 0000.0001) // -o- Thread   1, tiles (   1:   6,   1:   1)
(PID.TID 0000.0001) 
(PID.TID 0000.0001) W2_READPARMS: file data.exch2 not found
(PID.TID 0000.0001) => use W2_EXCH2 default: regular 6-facets Cube
(PID.TID 0000.0001) W2_useE2ioLayOut=    T ;/* T: use Exch2 glob IO map; F: use model default */
(PID.TID 0000.0001) W2_mapIO        =  -1 ; /* select option for Exch2 global-IO map */
(PID.TID 0000.0001) W2_printMsg     =  -1 ; /* select option for printing information */
(PID.TID 0000.0001) ===== Start setting W2 TOPOLOGY:
(PID.TID 0000.0001)  write to log-file: w2_tile_topology.0000.log
(PID.TID 0000.0001) =====       setting W2 TOPOLOGY: Done
(PID.TID 0000.0001) 
(PID.TID 0000.0001)  INI_PARMS: opening model parameter file "data"
(PID.TID 0000.0001)  OPEN_COPY_DATA_FILE: opening file data
(PID.TID 0000.0001) // =======================================================
(PID.TID 0000.0001) // Parameter file "data"
(PID.TID 0000.0001) // =======================================================
(PID.TID 0000.0001) ># ====================
(PID.TID 0000.0001) ># | Model parameters |
(PID.TID 0000.0001) ># ====================
(PID.TID 0000.0001) >#
(PID.TID 0000.0001) ># Continuous equation parameters
(PID.TID 0000.0001) > &PARM01
(PID.TID 0000.0001) >#tRef=295.1, 295.3, 295.4, 295.6, 295.8, 296.0, 296.2, 296.4, 296.6, 296.8,
(PID.TID 0000.0001) >#     297.0, 297.3, 297.5, 297.7, 298.0, 298.3, 298.5, 298.8, 299.1, 299.5,
(PID.TID 0000.0001) >#     299.8, 300.1, 300.5, 300.9, 301.5, 302.3, 303.4, 304.9, 306.8, 309.4,
(PID.TID 0000.0001) >#     312.9, 317.8, 324.7, 336.1, 352.6, 373.4, 401.2, 441.6, 511.0, 699.5,
(PID.TID 0000.0001) >#tRef=295.2, 295.5, 295.9, 296.3, 296.7, 297.1, 297.6, 298.1, 298.7, 299.3,
(PID.TID 0000.0001) >#     300.0, 300.7, 301.9, 304.1, 308.0, 315.1, 329.5, 362.3, 419.2, 573.8,
(PID.TID 0000.0001) > tRef=295.3, 296.1, 296.9, 297.9, 299.0, 300.3, 302.8, 311.0, 343.9, 470.7,
(PID.TID 0000.0001) > sRef=10*0.0,
(PID.TID 0000.0001) > viscAr=0.E1,
(PID.TID 0000.0001) > viscAh=0.E6,
(PID.TID 0000.0001) > viscA4=0.E17,
(PID.TID 0000.0001) > no_slip_sides=.FALSE.,
(PID.TID 0000.0001) > no_slip_bottom=.FALSE.,
(PID.TID 0000.0001) > diffKhT=0.E3,
(PID.TID 0000.0001) > diffKrT=0.,
(PID.TID 0000.0001) > diffK4T=0.E17,
(PID.TID 0000.0001) > diffKrS=0.E2,
(PID.TID 0000.0001) > diffKhS=0.E3,
(PID.TID 0000.0001) > diffK4S=0.E17,
(PID.TID 0000.0001) > buoyancyRelation='ATMOSPHERIC',
(PID.TID 0000.0001) > eosType='IDEALG',
(PID.TID 0000.0001) >#Integr_GeoPot=2,
(PID.TID 0000.0001) > rotationPeriod=86400.,
(PID.TID 0000.0001) > gravity=9.81,
(PID.TID 0000.0001) > rhonil=1.0,
(PID.TID 0000.0001) > rhoConst=1.0,
(PID.TID 0000.0001) > rigidLid=.FALSE.,
(PID.TID 0000.0001) > implicitFreeSurface=.TRUE.,
(PID.TID 0000.0001) > exactConserv=.TRUE.,
(PID.TID 0000.0001) > uniformLin_PhiSurf=.FALSE.,
(PID.TID 0000.0001) > staggerTimeStep=.TRUE.,
(PID.TID 0000.0001) > readBinaryPrec=64,
(PID.TID 0000.0001) > writeBinaryPrec=64,
(PID.TID 0000.0001) > hFacMin=0.2,
(PID.TID 0000.0001) > nonlinFreeSurf=4,
(PID.TID 0000.0001) > select_rStar=2,
(PID.TID 0000.0001) > saltAdvScheme=3,
(PID.TID 0000.0001) > vectorInvariantMomentum=.TRUE.,
(PID.TID 0000.0001) > /
(PID.TID 0000.0001) >
(PID.TID 0000.0001) ># Elliptic solver parameters
(PID.TID 0000.0001) > &PARM02
(PID.TID 0000.0001) > cg2dMaxIters=200,
(PID.TID 0000.0001) >#cg2dTargetResidual=1.E-12,
(PID.TID 0000.0001) > cg2dTargetResWunit=1.E-17,
(PID.TID 0000.0001) > /
(PID.TID 0000.0001) >
(PID.TID 0000.0001) ># Time stepping parameters
(PID.TID 0000.0001) > &PARM03
(PID.TID 0000.0001) > niter0=0,
(PID.TID 0000.0001) >#nTimeSteps=691200,
(PID.TID 0000.0001) > nTimeSteps=5,
(PID.TID 0000.0001) >#endTime=864000.0,
(PID.TID 0000.0001) > deltaT=450.0,
(PID.TID 0000.0001) >#forcing_In_AB=.FALSE.,
(PID.TID 0000.0001) > tracForcingOutAB=1,
(PID.TID 0000.0001) > abEps=0.1,
(PID.TID 0000.0001) > cAdjFreq=0.,
(PID.TID 0000.0001) > pChkptFreq=2592000.0,
(PID.TID 0000.0001) > chkptFreq=0.0,
(PID.TID 0000.0001) >#dumpFreq=2592000.0,
(PID.TID 0000.0001) > dumpFreq=3600.0,
(PID.TID 0000.0001) > monitorFreq=1.,
(PID.TID 0000.0001) > taveFreq=0.0,
(PID.TID 0000.0001) > tave_lastiter=1.,
(PID.TID 0000.0001) > /
(PID.TID 0000.0001) >
(PID.TID 0000.0001) ># Gridding parameters
(PID.TID 0000.0001) > &PARM04
(PID.TID 0000.0001) > usingCurvilinearGrid=.TRUE.,
(PID.TID 0000.0001) > horizGridFile='dxC1_dXYa',
(PID.TID 0000.0001) > radius_fromHorizGrid=6370.E3,
(PID.TID 0000.0001) > delR=10*1.E4,
(PID.TID 0000.0001) > Ro_SeaLevel=1.E5,
(PID.TID 0000.0001) > /
(PID.TID 0000.0001) >
(PID.TID 0000.0001) ># Input datasets
(PID.TID 0000.0001) > &PARM05
(PID.TID 0000.0001) > topoFile='topo.cs.bin',
(PID.TID 0000.0001) > /
(PID.TID 0000.0001) 
(PID.TID 0000.0001)  INI_PARMS ; starts to read PARM01
(PID.TID 0000.0001)  INI_PARMS ; read PARM01 : OK
(PID.TID 0000.0001)  INI_PARMS ; starts to read PARM02
(PID.TID 0000.0001)  INI_PARMS ; read PARM02 : OK
(PID.TID 0000.0001)  INI_PARMS ; starts to read PARM03
(PID.TID 0000.0001)  INI_PARMS ; read PARM03 : OK
(PID.TID 0000.0001)  INI_PARMS ; starts to read PARM04
(PID.TID 0000.0001)  INI_PARMS ; read PARM04 : OK
(PID.TID 0000.0001)  INI_PARMS ; starts to read PARM05
(PID.TID 0000.0001)  INI_PARMS ; read PARM05 : OK
(PID.TID 0000.0001)  INI_PARMS: finished reading file "data"
(PID.TID 0000.0001)  PACKAGES_BOOT: opening data.pkg
(PID.TID 0000.0001)  OPEN_COPY_DATA_FILE: opening file data.pkg
(PID.TID 0000.0001) // =======================================================
(PID.TID 0000.0001) // Parameter file "data.pkg"
(PID.TID 0000.0001) // =======================================================
(PID.TID 0000.0001) ># Packages
(PID.TID 0000.0001) > &PACKAGES
(PID.TID 0000.0001) > useFizhi=.TRUE.,
(PID.TID 0000.0001) > useGridAlt=.TRUE.,
(PID.TID 0000.0001) > useSHAP_FILT=.TRUE.,
(PID.TID 0000.0001) > useDiagnostics=.TRUE.,
(PID.TID 0000.0001) >#useMNC=.TRUE.,
(PID.TID 0000.0001) > /
(PID.TID 0000.0001) 
(PID.TID 0000.0001)  PACKAGES_BOOT: finished reading data.pkg
(PID.TID 0000.0001)  PACKAGES_BOOT: On/Off package Summary
 --------  pkgs with a standard "usePKG" On/Off switch in "data.pkg":  --------
 pkg/shap_filt            compiled   and   used ( useSHAP_FILT             = T )
 pkg/fizhi                compiled   and   used ( useFizhi                 = T )
 pkg/gridalt              compiled   and   used ( useGridAlt               = T )
 pkg/diagnostics          compiled   and   used ( useDiagnostics           = T )
 -------- pkgs without standard "usePKG" On/Off switch in "data.pkg":  --------
 pkg/generic_advdiff      compiled   and   used ( useGAD                   = T )
 pkg/mom_common           compiled   and   used ( momStepping              = T )
 pkg/mom_vecinv           compiled   and   used ( +vectorInvariantMomentum = T )
 pkg/monitor              compiled   and   used ( monitorFreq > 0.         = T )
 pkg/debug                compiled but not used ( debugMode                = F )
 pkg/exch2                compiled   and   used
 pkg/rw                   compiled   and   used
 pkg/mdsio                compiled   and   used
 pkg/atm_common           compiled   ( used ? )
(PID.TID 0000.0001)  PACKAGES_BOOT: End of package Summary
(PID.TID 0000.0001) 
(PID.TID 0000.0001)  SHAP_FILT_READPARMS: opening data.shap
(PID.TID 0000.0001)  OPEN_COPY_DATA_FILE: opening file data.shap
(PID.TID 0000.0001) // =======================================================
(PID.TID 0000.0001) // Parameter file "data.shap"
(PID.TID 0000.0001) // =======================================================
(PID.TID 0000.0001) ># Shapiro Filter parameters
(PID.TID 0000.0001) > &SHAP_PARM01
(PID.TID 0000.0001) > shap_filt_uvStar=.FALSE.,
(PID.TID 0000.0001) > shap_filt_TrStagg=.TRUE.,
(PID.TID 0000.0001) > Shap_funct=2,
(PID.TID 0000.0001) > nShapT=4,
(PID.TID 0000.0001) > nShapUV=4,
(PID.TID 0000.0001) > nShapTrPhys=0,
(PID.TID 0000.0001) > nShapUVPhys=0,
(PID.TID 0000.0001) >#Shap_TrLength=115000.,
(PID.TID 0000.0001) >#Shap_uvLength=110000.,
(PID.TID 0000.0001) > Shap_Trtau=5400.,
(PID.TID 0000.0001) > Shap_uvtau=1800.,
(PID.TID 0000.0001) > /
(PID.TID 0000.0001) 
(PID.TID 0000.0001)  SHAP_FILT_READPARMS: finished reading data.shap
(PID.TID 0000.0001) Shap_funct =   /* select Shapiro filter function */
(PID.TID 0000.0001)                       2
(PID.TID 0000.0001)     ;
(PID.TID 0000.0001) nShapT =   /* power of Shapiro filter for Temperat */
(PID.TID 0000.0001)                       4
(PID.TID 0000.0001)     ;
(PID.TID 0000.0001) nShapS =   /* power of Shapiro filter for Salinity */
(PID.TID 0000.0001)                       4
(PID.TID 0000.0001)     ;
(PID.TID 0000.0001) nShapUV =   /* power of Shapiro filter for momentum */
(PID.TID 0000.0001)                       4
(PID.TID 0000.0001)     ;
(PID.TID 0000.0001) shap_filt_uvStar = /* apply filter before Press. Solver */
(PID.TID 0000.0001)                   F
(PID.TID 0000.0001)     ;
(PID.TID 0000.0001) shap_filt_TrStagg = /* filter T,S before calc PhiHyd (staggerTimeStep) */
(PID.TID 0000.0001)                   T
(PID.TID 0000.0001)     ;
(PID.TID 0000.0001) Shap_alwaysExchUV = /* always exch(U,V)    nShapUV times*/
(PID.TID 0000.0001)                   F
(PID.TID 0000.0001)     ;
(PID.TID 0000.0001) Shap_alwaysExchTr = /* always exch(Tracer) nShapTr times*/
(PID.TID 0000.0001)                   F
(PID.TID 0000.0001)     ;
(PID.TID 0000.0001) nShapTrPhys =   /* power of physical-space filter (Tracer) */
(PID.TID 0000.0001)                       0
(PID.TID 0000.0001)     ;
(PID.TID 0000.0001) nShapUVPhys =   /* power of physical-space filter (Momentum) */
(PID.TID 0000.0001)                       0
(PID.TID 0000.0001)     ;
(PID.TID 0000.0001) Shap_Trtau =   /* time scale of Shapiro filter (Tracer) */
(PID.TID 0000.0001)                 5.400000000000000E+03
(PID.TID 0000.0001)     ;
(PID.TID 0000.0001) Shap_TrLength =   /* Length scale of Shapiro filter (Tracer) */
(PID.TID 0000.0001)                 0.000000000000000E+00
(PID.TID 0000.0001)     ;
(PID.TID 0000.0001) Shap_uvtau =   /* time scale of Shapiro filter (Momentum) */
(PID.TID 0000.0001)                 1.800000000000000E+03
(PID.TID 0000.0001)     ;
(PID.TID 0000.0001) Shap_uvLength =   /* Length scale of Shapiro filter (Momentum) */
(PID.TID 0000.0001)                 0.000000000000000E+00
(PID.TID 0000.0001)     ;
(PID.TID 0000.0001) Shap_noSlip =  /* No-slip parameter (0=Free-slip ; 1=No-slip)*/
(PID.TID 0000.0001)                 0.000000000000000E+00
(PID.TID 0000.0001)     ;
(PID.TID 0000.0001) Shap_diagFreq =   /* Frequency^-1 for diagnostic output (s)*/
(PID.TID 0000.0001)                 0.000000000000000E+00
(PID.TID 0000.0001)     ;
(PID.TID 0000.0001)  FIZHI_READPARMS: opening data.fizhi
(PID.TID 0000.0001)  OPEN_COPY_DATA_FILE: opening file data.fizhi
(PID.TID 0000.0001) // =======================================================
(PID.TID 0000.0001) // Parameter file "data.fizhi"
(PID.TID 0000.0001) // =======================================================
(PID.TID 0000.0001) ># Fizhi Parameters
(PID.TID 0000.0001) > &fizhi_list
(PID.TID 0000.0001) > nhmsbegin=120000,
(PID.TID 0000.0001) > nymdbegin=20040301,
(PID.TID 0000.0001) > /
(PID.TID 0000.0001) 
   Begin Date     20040301    Begin Time       120000
 Current Date     20040301  Current Time       120000
(PID.TID 0000.0001)  DIAGNOSTICS_READPARMS: opening data.diagnostics
(PID.TID 0000.0001)  OPEN_COPY_DATA_FILE: opening file data.diagnostics
(PID.TID 0000.0001) // =======================================================
(PID.TID 0000.0001) // Parameter file "data.diagnostics"
(PID.TID 0000.0001) // =======================================================
(PID.TID 0000.0001) ># Diagnostic Package Choices
(PID.TID 0000.0001) >#--------------------
(PID.TID 0000.0001) >#  dumpAtLast (logical): always write output at the end of simulation (default=F)
(PID.TID 0000.0001) >#  diag_mnc   (logical): write to NetCDF files (default=useMNC)
(PID.TID 0000.0001) >#--for each output-stream:
(PID.TID 0000.0001) >#  fileName(n) : prefix of the output file name (max 80c long) for outp.stream n
(PID.TID 0000.0001) >#  frequency(n):< 0 : write snap-shot output every |frequency| seconds
(PID.TID 0000.0001) >#               > 0 : write time-average output every frequency seconds
(PID.TID 0000.0001) >#  timePhase(n)     : write at time = timePhase + multiple of |frequency|
(PID.TID 0000.0001) >#    averagingFreq  : frequency (in s) for periodic averaging interval
(PID.TID 0000.0001) >#    averagingPhase : phase     (in s) for periodic averaging interval
(PID.TID 0000.0001) >#    repeatCycle    : number of averaging intervals in 1 cycle
(PID.TID 0000.0001) >#  levels(:,n) : list of levels to write to file (Notes: declared as REAL)
(PID.TID 0000.0001) >#                when this entry is missing, select all common levels of this list
(PID.TID 0000.0001) >#  fields(:,n) : list of selected diagnostics fields (8.c) in outp.stream n
(PID.TID 0000.0001) >#                (see "available_diagnostics.log" file for the full list of diags)
(PID.TID 0000.0001) >#  missing_value(n) : missing value for real-type fields in output file "n"
(PID.TID 0000.0001) >#  fileFlags(n)     : specific code (8c string) for output file "n"
(PID.TID 0000.0001) >#--------------------
(PID.TID 0000.0001) > &DIAGNOSTICS_LIST
(PID.TID 0000.0001) >   fields(1,1) = 'ETAN   ',
(PID.TID 0000.0001) >   levels(1,1) = 1.,
(PID.TID 0000.0001) >   fileName(1) = 'surface',
(PID.TID 0000.0001) >  frequency(1) = 0.003,
(PID.TID 0000.0001) >
(PID.TID 0000.0001) >   fields(1,2) = 'DPPHYS  ',
(PID.TID 0000.0001) >  levels(1:20,2) = 1.,2.,3.,4.,5.,6.,7.,8.,9.,10.,11.,12.,13.,14.,15.,16.,17.,18.,19.,20.,
(PID.TID 0000.0001) >   fileName(2) = 'fizhidt',
(PID.TID 0000.0001) >  frequency(2) = 0.003,
(PID.TID 0000.0001) > /
(PID.TID 0000.0001) >
(PID.TID 0000.0001) >#--------------------
(PID.TID 0000.0001) ># Parameter for Diagnostics of per level statistics:
(PID.TID 0000.0001) >#--------------------
(PID.TID 0000.0001) >#  diagSt_mnc (logical): write stat-diags to NetCDF files (default=diag_mnc)
(PID.TID 0000.0001) >#  diagSt_regMaskFile : file containing the region-mask to read-in
(PID.TID 0000.0001) >#  nSetRegMskFile   : number of region-mask sets within the region-mask file
(PID.TID 0000.0001) >#  set_regMask(i)   : region-mask set-index that identifies the region "i"
(PID.TID 0000.0001) >#  val_regMask(i)   : region "i" identifier value in the region mask
(PID.TID 0000.0001) >#--for each output-stream:
(PID.TID 0000.0001) >#  stat_fName(n) : prefix of the output file name (max 80c long) for outp.stream n
(PID.TID 0000.0001) >#  stat_freq(n):< 0 : write snap-shot output every |stat_freq| seconds
(PID.TID 0000.0001) >#               > 0 : write time-average output every stat_freq seconds
(PID.TID 0000.0001) >#  stat_phase(n)    : write at time = stat_phase + multiple of |stat_freq|
(PID.TID 0000.0001) >#  stat_region(:,n) : list of "regions" (default: 1 region only=global)
(PID.TID 0000.0001) >#  stat_fields(:,n) : list of selected diagnostics fields (8.c) in outp.stream n
(PID.TID 0000.0001) >#                (see "available_diagnostics.log" file for the full list of diags)
(PID.TID 0000.0001) >#--------------------
(PID.TID 0000.0001) > &DIAG_STATIS_PARMS
(PID.TID 0000.0001) >#- an example just to check the agreement with MONITOR output:
(PID.TID 0000.0001) >#stat_fields(1:5,1)  = 'ETAN    ','UVEL    ','VVEL    ','WVEL    ', 'THETA   ',
(PID.TID 0000.0001) ># stat_fName(1) = 'dynStDiag',
(PID.TID 0000.0001) >#  stat_freq(1) = -3600.,
(PID.TID 0000.0001) ># stat_phase(1) = 0.,
(PID.TID 0000.0001) > /
(PID.TID 0000.0001) 
(PID.TID 0000.0001) S/R DIAGNOSTICS_READPARMS, read namelist "diagnostics_list": start
(PID.TID 0000.0001) S/R DIAGNOSTICS_READPARMS, read namelist "diagnostics_list": OK
(PID.TID 0000.0001) S/R DIAGNOSTICS_READPARMS, read namelist "DIAG_STATIS_PARMS": start
(PID.TID 0000.0001) S/R DIAGNOSTICS_READPARMS, read namelist "DIAG_STATIS_PARMS": OK
(PID.TID 0000.0001)  DIAGNOSTICS_READPARMS: global parameter summary:
(PID.TID 0000.0001)  dumpAtLast = /* always write time-ave diags at the end */
(PID.TID 0000.0001)                   F
(PID.TID 0000.0001)     ;
(PID.TID 0000.0001)  diag_mnc =   /* write NetCDF output files */
(PID.TID 0000.0001)                   F
(PID.TID 0000.0001)     ;
(PID.TID 0000.0001)  useMissingValue = /* put MissingValue where mask = 0 */
(PID.TID 0000.0001)                   F
(PID.TID 0000.0001)     ;
(PID.TID 0000.0001)  diagCG_maxIters = /* max number of iters in diag_cg2d */
(PID.TID 0000.0001)                     200
(PID.TID 0000.0001)     ;
(PID.TID 0000.0001)  diagCG_resTarget = /* residual target for diag_cg2d */
(PID.TID 0000.0001)                 1.000000000000000E-07
(PID.TID 0000.0001)     ;
(PID.TID 0000.0001) -----------------------------------------------------
(PID.TID 0000.0001)  DIAGNOSTICS_READPARMS: active diagnostics summary:
(PID.TID 0000.0001) -----------------------------------------------------
(PID.TID 0000.0001) Creating Output Stream: surface
(PID.TID 0000.0001) Output Frequency:          0.003000 ; Phase:           0.000000
(PID.TID 0000.0001)  Averaging Freq.:          0.003000 , Phase:           0.000000 , Cycle:   1
(PID.TID 0000.0001)  missing value:  1.000000000000E+15
(PID.TID 0000.0001)  Levels:       1.
(PID.TID 0000.0001)  Fields:    ETAN
(PID.TID 0000.0001) Creating Output Stream: fizhidt
(PID.TID 0000.0001) Output Frequency:          0.003000 ; Phase:           0.000000
(PID.TID 0000.0001)  Averaging Freq.:          0.003000 , Phase:           0.000000 , Cycle:   1
(PID.TID 0000.0001)  missing value:  1.000000000000E+15
(PID.TID 0000.0001)  Levels:       1.   2.   3.   4.   5.   6.   7.   8.   9.  10.  11.  12.  13.  14.  15.  16.  17.  18.  19.  20.
(PID.TID 0000.0001)  Fields:    DPPHYS
(PID.TID 0000.0001) -----------------------------------------------------
(PID.TID 0000.0001)  DIAGNOSTICS_READPARMS: statistics diags. summary:
(PID.TID 0000.0001) -----------------------------------------------------
(PID.TID 0000.0001) 
(PID.TID 0000.0001) SET_PARMS: done
(PID.TID 0000.0001) Enter INI_VERTICAL_GRID: setInterFDr=    T ; setCenterDr=    F
(PID.TID 0000.0001) tile:   1 ; Read from file dxC1_dXYa.face001.bin
(PID.TID 0000.0001)   => xC yC dxF dyF rA xG yG dxV dyU rAz dxC dyC rAw rAs dxG dyG AngleCS AngleSN
(PID.TID 0000.0001) tile:   2 ; Read from file dxC1_dXYa.face002.bin
(PID.TID 0000.0001)   => xC yC dxF dyF rA xG yG dxV dyU rAz dxC dyC rAw rAs dxG dyG AngleCS AngleSN
(PID.TID 0000.0001) tile:   3 ; Read from file dxC1_dXYa.face003.bin
(PID.TID 0000.0001)   => xC yC dxF dyF rA xG yG dxV dyU rAz dxC dyC rAw rAs dxG dyG AngleCS AngleSN
(PID.TID 0000.0001) tile:   4 ; Read from file dxC1_dXYa.face004.bin
(PID.TID 0000.0001)   => xC yC dxF dyF rA xG yG dxV dyU rAz dxC dyC rAw rAs dxG dyG AngleCS AngleSN
(PID.TID 0000.0001) tile:   5 ; Read from file dxC1_dXYa.face005.bin
(PID.TID 0000.0001)   => xC yC dxF dyF rA xG yG dxV dyU rAz dxC dyC rAw rAs dxG dyG AngleCS AngleSN
(PID.TID 0000.0001) tile:   6 ; Read from file dxC1_dXYa.face006.bin
(PID.TID 0000.0001)   => xC yC dxF dyF rA xG yG dxV dyU rAz dxC dyC rAw rAs dxG dyG AngleCS AngleSN
(PID.TID 0000.0001) %MON XC_max                       =   1.7854351589505E+02
(PID.TID 0000.0001) %MON XC_min                       =  -1.7854351589505E+02
(PID.TID 0000.0001) %MON XC_mean                      =  -4.6999441375798E-15
(PID.TID 0000.0001) %MON XC_sd                        =   1.0355545336287E+02
(PID.TID 0000.0001) %MON XG_max                       =   1.8000000000000E+02
(PID.TID 0000.0001) %MON XG_min                       =  -1.7708797161002E+02
(PID.TID 0000.0001) %MON XG_mean                      =   1.8603515625000E+00
(PID.TID 0000.0001) %MON XG_sd                        =   1.0357130300504E+02
(PID.TID 0000.0001) %MON DXC_max                      =   3.2375185836900E+05
(PID.TID 0000.0001) %MON DXC_min                      =   1.1353730006923E+05
(PID.TID 0000.0001) %MON DXC_mean                     =   2.8606102525036E+05
(PID.TID 0000.0001) %MON DXC_sd                       =   3.4020997630307E+04
(PID.TID 0000.0001) %MON DXF_max                      =   3.2369947500827E+05
(PID.TID 0000.0001) %MON DXF_min                      =   1.2020820513318E+05
(PID.TID 0000.0001) %MON DXF_mean                     =   2.8605437324820E+05
(PID.TID 0000.0001) %MON DXF_sd                       =   3.4050524252539E+04
(PID.TID 0000.0001) %MON DXG_max                      =   3.2375195872773E+05
(PID.TID 0000.0001) %MON DXG_min                      =   1.0098378008791E+05
(PID.TID 0000.0001) %MON DXG_mean                     =   2.8603818508931E+05
(PID.TID 0000.0001) %MON DXG_sd                       =   3.4140406908005E+04
(PID.TID 0000.0001) %MON DXV_max                      =   3.2380418162750E+05
(PID.TID 0000.0001) %MON DXV_min                      =   8.0152299824136E+04
(PID.TID 0000.0001) %MON DXV_mean                     =   2.8603970633619E+05
(PID.TID 0000.0001) %MON DXV_sd                       =   3.4145142117723E+04
(PID.TID 0000.0001) %MON YC_max                       =   8.7940663871962E+01
(PID.TID 0000.0001) %MON YC_min                       =  -8.7940663871962E+01
(PID.TID 0000.0001) %MON YC_mean                      =   0.0000000000000E+00
(PID.TID 0000.0001) %MON YC_sd                        =   3.8676242969072E+01
(PID.TID 0000.0001) %MON YG_max                       =   9.0000000000000E+01
(PID.TID 0000.0001) %MON YG_min                       =  -9.0000000000000E+01
(PID.TID 0000.0001) %MON YG_mean                      =  -1.1842378929335E-15
(PID.TID 0000.0001) %MON YG_sd                        =   3.8676895860710E+01
(PID.TID 0000.0001) %MON DYC_max                      =   3.2375185836900E+05
(PID.TID 0000.0001) %MON DYC_min                      =   1.1353730006923E+05
(PID.TID 0000.0001) %MON DYC_mean                     =   2.8606102525036E+05
(PID.TID 0000.0001) %MON DYC_sd                       =   3.4020997630307E+04
(PID.TID 0000.0001) %MON DYF_max                      =   3.2369947500827E+05
(PID.TID 0000.0001) %MON DYF_min                      =   1.2020820513318E+05
(PID.TID 0000.0001) %MON DYF_mean                     =   2.8605437324820E+05
(PID.TID 0000.0001) %MON DYF_sd                       =   3.4050524252539E+04
(PID.TID 0000.0001) %MON DYG_max                      =   3.2375195872773E+05
(PID.TID 0000.0001) %MON DYG_min                      =   1.0098378008791E+05
(PID.TID 0000.0001) %MON DYG_mean                     =   2.8603818508931E+05
(PID.TID 0000.0001) %MON DYG_sd                       =   3.4140406908005E+04
(PID.TID 0000.0001) %MON DYU_max                      =   3.2380418162750E+05
(PID.TID 0000.0001) %MON DYU_min                      =   8.0152299824136E+04
(PID.TID 0000.0001) %MON DYU_mean                     =   2.8603970633619E+05
(PID.TID 0000.0001) %MON DYU_sd                       =   3.4145142117723E+04
(PID.TID 0000.0001) %MON RA_max                       =   1.0474757731659E+11
(PID.TID 0000.0001) %MON RA_min                       =   1.5497867056722E+10
(PID.TID 0000.0001) %MON RA_mean                      =   8.2985711332657E+10
(PID.TID 0000.0001) %MON RA_sd                        =   1.7448591913787E+10
(PID.TID 0000.0001) %MON RAW_max                      =   1.0481529828871E+11
(PID.TID 0000.0001) %MON RAW_min                      =   1.1465425741966E+10
(PID.TID 0000.0001) %MON RAW_mean                     =   8.2985711332657E+10
(PID.TID 0000.0001) %MON RAW_sd                       =   1.7503889570793E+10
(PID.TID 0000.0001) %MON RAS_max                      =   1.0481529828871E+11
(PID.TID 0000.0001) %MON RAS_min                      =   1.1465425741966E+10
(PID.TID 0000.0001) %MON RAS_mean                     =   8.2985711332657E+10
(PID.TID 0000.0001) %MON RAS_sd                       =   1.7503889570793E+10
(PID.TID 0000.0001) %MON RAZ_max                      =   1.0484349334619E+11
(PID.TID 0000.0001) %MON RAZ_min                      =   8.8317900612505E+09
(PID.TID 0000.0001) %MON RAZ_mean                     =   8.2992246709235E+10
(PID.TID 0000.0001) %MON RAZ_sd                       =   1.7482297311044E+10
(PID.TID 0000.0001) %MON AngleCS_max                  =   9.9999994756719E-01
(PID.TID 0000.0001) %MON AngleCS_min                  =  -9.9968286884824E-01
(PID.TID 0000.0001) %MON AngleCS_mean                 =   3.3078922539000E-01
(PID.TID 0000.0001) %MON AngleCS_sd                   =   6.2496278958502E-01
(PID.TID 0000.0001) %MON AngleSN_max                  =   9.9968286884824E-01
(PID.TID 0000.0001) %MON AngleSN_min                  =  -9.9999994756719E-01
(PID.TID 0000.0001) %MON AngleSN_mean                 =  -3.3078922539000E-01
(PID.TID 0000.0001) %MON AngleSN_sd                   =   6.2496278958502E-01
(PID.TID 0000.0001) 
(PID.TID 0000.0001) SET_REF_STATE: PhiRef/g [m] at level Center (integer)
(PID.TID 0000.0001)                      and at level Interface (half-int.) :
(PID.TID 0000.0001)  K=  0.5  ;  r=       100000.0  ;  phiRef/g=        0.000
(PID.TID 0000.0001)  K=  1.0  ;  r=        95000.0  ;  phiRef/g=      439.686
(PID.TID 0000.0001)  K=  1.5  ;  r=        90000.0  ;  phiRef/g=      905.473
(PID.TID 0000.0001)  K=  2.0  ;  r=        85000.0  ;  phiRef/g=     1371.261
(PID.TID 0000.0001)  K=  2.5  ;  r=        80000.0  ;  phiRef/g=     1878.016
(PID.TID 0000.0001)  K=  3.0  ;  r=        75000.0  ;  phiRef/g=     2384.771
(PID.TID 0000.0001)  K=  3.5  ;  r=        70000.0  ;  phiRef/g=     2942.378
(PID.TID 0000.0001)  K=  4.0  ;  r=        65000.0  ;  phiRef/g=     3499.984
(PID.TID 0000.0001)  K=  4.5  ;  r=        60000.0  ;  phiRef/g=     4122.729
(PID.TID 0000.0001)  K=  5.0  ;  r=        55000.0  ;  phiRef/g=     4745.475
(PID.TID 0000.0001)  K=  5.5  ;  r=        50000.0  ;  phiRef/g=     5455.284
(PID.TID 0000.0001)  K=  6.0  ;  r=        45000.0  ;  phiRef/g=     6165.093
(PID.TID 0000.0001)  K=  6.5  ;  r=        40000.0  ;  phiRef/g=     6998.518
(PID.TID 0000.0001)  K=  7.0  ;  r=        35000.0  ;  phiRef/g=     7831.943
(PID.TID 0000.0001)  K=  7.5  ;  r=        30000.0  ;  phiRef/g=     8858.079
(PID.TID 0000.0001)  K=  8.0  ;  r=        25000.0  ;  phiRef/g=     9884.215
(PID.TID 0000.0001)  K=  8.5  ;  r=        20000.0  ;  phiRef/g=    11265.166
(PID.TID 0000.0001)  K=  9.0  ;  r=        15000.0  ;  phiRef/g=    12646.117
(PID.TID 0000.0001)  K=  9.5  ;  r=        10000.0  ;  phiRef/g=    15013.636
(PID.TID 0000.0001)  K= 10.0  ;  r=         5000.0  ;  phiRef/g=    17381.154
(PID.TID 0000.0001)  K= 10.5  ;  r=            0.0  ;  phiRef/g=    30222.345
(PID.TID 0000.0001)  MDS_READ_FIELD: opening global file: topo.cs.bin
(PID.TID 0000.0001) // =======================================================
(PID.TID 0000.0001) // Field Model R_low (ini_masks_etc)
(PID.TID 0000.0001) // CMIN =          1.000000000000000E+32
(PID.TID 0000.0001) // CMAX =         -1.000000000000000E+32
(PID.TID 0000.0001) // CINT =          0.000000000000000E+00
(PID.TID 0000.0001) // SYMBOLS (CMIN->CMAX): -abcdefghijklmnopqrstuvwxyz+
(PID.TID 0000.0001) //                  0.0: .
(PID.TID 0000.0001) // RANGE I (Lo:Hi:Step):(    -1:   194:     1)
(PID.TID 0000.0001) // RANGE J (Lo:Hi:Step):(    34:    -1:    -1)
(PID.TID 0000.0001) // RANGE K (Lo:Hi:Step):(   1:   1:   1)
(PID.TID 0000.0001) // =======================================================
(PID.TID 0000.0001) // =======================================================
(PID.TID 0000.0001) // END OF FIELD                                          =
(PID.TID 0000.0001) // =======================================================
(PID.TID 0000.0001) 
(PID.TID 0000.0001) // =======================================================
(PID.TID 0000.0001) // Field Model Ro_surf (ini_masks_etc)
(PID.TID 0000.0001) // CMIN =          4.813882208579992E+04
(PID.TID 0000.0001) // CMAX =          1.000000000000000E+05
(PID.TID 0000.0001) // CINT =          1.920784367192596E+03
(PID.TID 0000.0001) // SYMBOLS (CMIN->CMAX): -abcdefghijklmnopqrstuvwxyz+
(PID.TID 0000.0001) //                  0.0: .
(PID.TID 0000.0001) // RANGE I (Lo:Hi:Step):(    -1:   194:     1)
(PID.TID 0000.0001) // RANGE J (Lo:Hi:Step):(    34:    -1:    -1)
(PID.TID 0000.0001) // RANGE K (Lo:Hi:Step):(   1:   1:   1)
(PID.TID 0000.0001) // =======================================================
(PID.TID 0000.0001) K =   1
(PID.TID 0000.0001) //                I=8       I=18      I=28      I=34      I=44      I=54      I=64      I=70      I=80      I=90      I=96      I=106     I=116     I=126     I=132     I=142     I=152     I=162     I=168     I=178     I=188
(PID.TID 0000.0001) // |--J--|101234567|901234567|901234567|901234123|567890123|567890123|567890123|563456789|123456789|123456789|123456785|789012345|789012345|789012345|789078901|345678901|345678901|345678901|901234567|901234567|901234567|901234
(PID.TID 0000.0001) //     34 +++++++++++++++++zzxwtwwtz+++pnmootoootonv+zzzzzywvvrlommrrtttxyuy+++y+++++++++++++++zxyyzyxwtlmnnnx+++++++++++++++++++++++++++++++++++++++++++++++++++++++++++++++xwwvwwwy+++++++++++++++++++++++++++++++++++++++++++++
(PID.TID 0000.0001) //     33 +++++++++++++++++zwrrvwwxyzrsprrtttotttonx+yzzyyxxwrprlmlqsttrwyvx+++zzy++++++++++++zxxyyyyxwtomnopu+++++++++++++++++++++++++++++++++++++++++++++++++++++++++++++++zyxwwuut+++++++++++++++++++++++++++++++++++++++++++++
(PID.TID 0000.0001) //     32 +++++++++++++++++wuwwvwsuyutpswxyxtoyxtooozuwzywnmmjkopprrssssy++wx+xxxu++++++++++++ywyyyyxxxtqmnqqs+++++++++++++++++++++++++++++++++++++++++++++++++++++++++++++++zywwvvvuy++++++++++++++++++++++++++++++++++++++++++++
(PID.TID 0000.0001) //     31 +++++++++++++++ztty+zzvxuzvrvxwxyzupyzupoorrpxxoiemrtttnnrrsrvzz+zyzwxz+++++++++++zzyxxyxyxyxwtqorry+++++++++++++++++++++++++++++++++++++++++++++++++++++++++++++++zyyxvvwwvwy++++++++++++++++++++++++++++++++++++++++++
(PID.TID 0000.0001) //     30 ++++++++++++++++wu++++y++++++xuvxzzsxzzskossrrpodciolfffdiorsyz++++wx+++++++++++++zzxwxyzyyyxwuspsw+++++++++++++++++++++++++++++++++++++++++++++++++++++++++++++zzzyyxxxwxxuuv++++++++++++++++++++++++++++++++++++++++++
(PID.TID 0000.0001) //     29 ++++++++++++++++xxvuv++++++++vvvwyz+wyz+qmossokkje-aaaacdhmruyz++++++++++++++++++zzywwxz+zyyxwwsprw+++++++++++++++++++++++++++++++++++++++++++++++++++++++++++++yyzzyxxwwxxxwxy+++++++++++++++++++++++++++++++++++++++++
(PID.TID 0000.0001) //     28 +++++++++++++++uptuxxxyzzzzzxtuvvwy+vwy+xonnrsnpymbaaaa-bdkstyxxy+++++++++++++++++yxxwxz++zyxxwtprx++++++++++++++++++++++++++++++++++++++++++++++++++++++++++++zyyzzyyyxyyyyzzyz++++++++++++++++++++++++++++++++++++++++
(PID.TID 0000.0001) //     27 ++++++++++++++ysvwwxxwwxzzzyxxtttwwytwwyzwttrppwyyia-abbbcruvyxvy++++++++++++++++++zxxyz+++yxxwwssy++++++++++++++++++++++++++++++++++++++++++++++++++++++++++++xwyz+zyxxyzzzzzzz++++++++++++++++++++++++++++++++++++++++
(PID.TID 0000.0001) //     26 +++++++++++++zxxxyxwwwwwyyxxyxxuuvvxuvvxzzw+yxxzxyxxmmmohhnswwxvw++++++++++++++++++++yzx++zyyywwsry+++++++++++++++++++++++++++++++++++++++++++++++++++++++++++yuty++zyxyyxyzz+++z+++z+++++++++++++++++++++++++++++++++++
(PID.TID 0000.0001) //     25 +++++++++++++yyyyywtstvwwxvxyxw+suvysuvyzzwx+++zwxxxxzvurpquxxztt+++++++++++++++++++++xz+yyzyxxurrz+++++++++++++++++++++++++++++++++++++++++++++++++++++++++++xtsv+++yyxkkksyxyzy+++y+++++++++++++++++++++++++++++++++++
(PID.TID 0000.0001) //     24 +++++++++++++yyyyyxvuwvppxwxyxv+prvxprvxyzz++++zxxxxx+ywsrtyz++++++++++++++++++++++xz+uy+yzzyxytrs++++++++++++++++++++++++++++++++++++++++++++++z+++++++++++++wyyzz+zzwiedddlsvyz+++z+++++++++++++++++++++++++++++++++++
(PID.TID 0000.0001) //     23 +++++++++++++zyyyywxtvxxxvvxxxwtxnuwxnuwwz++++++xxyw+++zuvvxz+++uy+++++++++++++++++mqzzxvyz+zyyusrw+++++++++++++++++++++++++++++++++++++++++++++z++++++++++v+zrnyyzzzygdknzndfgrwwy+wwy++++++++++++++xttwz++++++++++++++
(PID.TID 0000.0001) //     22 +++++++++++++zyyyyxyxxyyxvuvwxupxnrxxnrx++++++++ywy+++++yxyuw+++x++++++++++++++++++rmrzzzwz+zzywtruyz+++++++++++++++++++++++++++++++++++++++++++yyz+++++++++++uqmwzzyuff++++++vrstvwstvwz+++++++++++rljhjoqu++++++++++++
(PID.TID 0000.0001) //     21 +++++++++++++yxyyyyyxxyywvtwwxpmux++ux+++++++++++vw++++++zyzv+++yz+++++++++++++++++rjkntxwz+z++wtuqwyz++++++++++++++++++++++++++++++++++++++++++xwxz++++++y++++ttlrvofn++++++++++xts+xtsuyy+++w+++++pkjijkllr+++++++++++
(PID.TID 0000.0001) //     20 +++++++++++++xwxyyyxvwwxxwwxxxplqsuvqsuv+++++++++wz++++++z+++++++yy++++++++++++++z+ukklnury+++++txxx+z++++++++++++++++++++++++++++++++++++++++++xyxxxz++++z+++zy++rmr++++++++++++++v+++vuy++++utz++xpljiikllq+++++++++++
(PID.TID 0000.0001) //     19 ++++++++++++++xxyyyyysuvxwvwxxplpwwypwwy++++++++++y++++++y+++++x+yv+++++z++++++++w++rlmovr++++++yyyz++++++++++++++++++++++++++++++++++++++++++++yyyyvwz+++++++s++++++++++++++++++++++++++++++++rqx+wrmkhikmru+++++++++++
(PID.TID 0000.0001) //     18 ++++++++++++++++++++zvwwxwwvuttsvxz+vxz+++++++++++++++++vwx+++vw++++++++t+++zzz++++++urqz+++++++++z+++++++++++++++++++++++++++++++++++++++++++++xyyyyxz+++++vuy+++++++++++++++++++++++++++++++++vszxrmkhghjkmu++++++++++
(PID.TID 0000.0001) //     17 +++++++++++++++++++++ywxyyxvrtpsyz++yz++++++++++++++++++yuz+zxuwz++z++++twzzyyy++++++++z+++++++++zy+++++++++++++++++++++++++++++++++++++++++++++yyyzzzz+++++ut++++++++++++++++++++++++++++++++++vtturlkigghikq++++++++++
(PID.TID 0000.0001) //     16 +++++++++++++++++++++zwxyxxtptprz+++z++++++++++++++++++++uy++yy+uy+zzyyyyuwz+++++++++++++++++++++wyy++++++++++++++++++++++++++++++++z+++++++++++xxyyyz+++++zpz++++++++++++++++++++++++++++++++++wsooolkjihhikp++++++++++
(PID.TID 0000.0001) //     15 zzzxz+++++++++++++++++xwxxwtqtrs++++++++++++++++++++++++++vz++z+wx+++yon+wrxy++utx+++zx+++++++++zwwu+++++++++++++++++++++++++++++++++++++++xxz++yxxxyyz++++zv+++++++++++++++++++++++++++++++++++ztqrtnkkkiijlp++++++++++
(PID.TID 0000.0001) //     14 yyywxx++++++++++++++++yuvvvusssv+++++++++++++++++++++++++++yyyz+++++++++zwrwy+zzwwuw++++++++++++zxvy+++++++++++++++++++++++++++++++++++++++++wx+xxwwwxxyzzwnx++++++++++++++++++++++++++++++++++++uoux+qnlkjkmq++++++++++
(PID.TID 0000.0001) //     13 ywxwxy++++++++++++++++xstttsrrrw+++++++++++++++++++++++++++++++y+z++++++zvvtxz+++zyy++++++y++++zzxuxuw++++++++++++++++++++++++++++++++++++++++++wtttttuvtpnm++++++++++++++++++++++++++++++++++++++puy+zpmlkkpw++++++++++
(PID.TID 0000.0001) //     12 xwwvy+++++++++++++++++trstssstuxz+++z+++++++++++++++++++++++++++++++++++vwwwxzzzzzzy++yx+++y++zxwvuxzux++++++++++++++++++++++++++++++z++++++++++tqolkorrrnpr+++++++++++++++++++++++++++++++++++++++++++rnmkms+++++++++++
(PID.TID 0000.0001) //     11 vvwwz+++++++++++++++++tstuutuuvwz++tz++t++++++++++++++++++++++++++zzzz++xswwwzzzzzzz++z++zzzzyuvrrty++y+++++++++++++++++++++++++++++++++++++++++qmmmlnront+++++++++++++++++++++++++++++++++++++++++++++qonnpz+++++++++++
(PID.TID 0000.0001) //     10 vvuw++++++++++++++++++sttuutsty+++tt++tt+++++++++++++++++++++++++zxxyyy+uuxtwzzzzzzzzzz++zyxxywstqv++++++++++++++++++++++++++++++z++++++++++++++onnnopsu+++++++++++++++++++++++++++++++++++++++++++++++rrrux++++++++++++
(PID.TID 0000.0001) //      9 wvuw++++++++++++++++++xrsuuttv++++ru++ru++++++++++++++++++++++++zzyxyyyyzyyzzzzzzzzzzww++zuwwxyyyww+++++++++++++++++++++++++++++++++++++++++++++rqonrwxyx+++++++++++++++++++++++++++++++++++++++++++++++++++++++++++++++
(PID.TID 0000.0001) //      8 wuty+++++++++++++++++++rtuuuvz++++tz++tz++++++++++++++++++++++ywxyxxxxyyvuz++zzzzzzzxzzzzzwwwxyxwuuyyy++++++++++++++++++++++++++++++++++++++++++rqpnrsz+++++++++++++++++++++++++++++++++++++++++++++++++++++++++++++++++
(PID.TID 0000.0001) //      7 vy+++++++++++++++++++++sutsrr+++++w+++w+++++++++++++++++++++++yxwxxxwxyzrtr+zzzzzzzzyzzzzzxxxxwwusutwyyz+++++++++++++++++++++++++++++++yxvwww+w+ysuxx+++++++++++++++++++++++++++++++++++++++++++++++++++++++++++++++++++
(PID.TID 0000.0001) //      6 w++++++++++++++++++++++xussps+++++++++++++++++++++++++++++++++yxxxxwwxz+vps+vvzzzzywzzzzzzxxxwtsvwxuxv+xz+++z++++++++++++++++++++y++++zxyzyywy++++++++++++++++++++++++++++++++++++++++++++++++++++++++++++++++++++++++++
(PID.TID 0000.0001) //      5 y++++++++++++++++++++++ztsrp++++++++++++++++++++++++++++++++++yxxyyyyyz+xsppunz++zyxzzzzzzyyxurtvvxxxw++xy++xy++++++++++++++++++tw+++yyxyzzzzy++++++++++++++++++++++++++++++++++++++++++++++++++++++++++++++++++++++++++
(PID.TID 0000.0001) //      4 ++++++++++++++++++++++++www+++++++++++++++++++++++++++++++++++yyyzzzzzzywwrnom+++zyyzyzzyuustusuuvywww+++wy++wy++++++++++++++++uo++zxwyyzzzzzz++++++++++++++++++++++++++++++++++++++++++++++++++++++++++++++++++++++++++
(PID.TID 0000.0001) //      3 +++++++++++++++++++++++++++++++++++++++++++++++++++++++++++++++++++++zzyxxrmnr+zzzzzxxxxuqpootrtuuyyvw+++xr++xr++++++++++++++++pp++zzzyzzzzyyz++++++++++++++++++++++++++++++++++++++++++++++++++++++++++++++++++++++++++
(PID.TID 0000.0001) //      2 ++++++++++++++++++++++++++++++++++++++++++++++++++++++++++++++++++++++zyyytonv+zzzzzywvvrlommrrtttxyuy+++yu++yu+++++++++++++++yn+++++yyz++yyy+++++++++++++++++++++++++++++++++++++++++++++++++++++++++++++++++++++++++++
(PID.TID 0000.0001) //      1 ++++++++++++++++++++++++++++++++++++++++++++++++++++++++++++++++++++++++zxtonx+yzzyyxxwrprlmlqsttrwyvx+++zxz+zxz++++++++++++++yo++++yyyyzzzzz+++++++++++++++++++++++++++++++++++++++++++++++++++++++++++x++++++w++++++++
(PID.TID 0000.0001) //      0 ++++++++++++++++++++++++++++++++++++++++++++++++++++++++++++++++++++++++uttooozuwzywnmmjkopprrssssy++wx+xxxxxxxx++++++++++++++yy+++zyyxxxyzz+++++++++++++++++++++++++++++++++++++++++++++++++++++++++++zw+++++++yyzz+++z
(PID.TID 0000.0001) //     -1 ++++++++++++++++++++++++++++++++++++++++++++++++++++++++++++++++++++++++poupoorrpxxoiemrtttnnrrsrvzz+zyzwxxwwxxwx+++++++++++++z++++zyyxwwyz++++++++++++++++++++++++++++++++++++++++++++++++++++++++++++x+++++++wwzzyyz+y
(PID.TID 0000.0001) // =======================================================
(PID.TID 0000.0001) // END OF FIELD                                          =
(PID.TID 0000.0001) // =======================================================
(PID.TID 0000.0001) 
(PID.TID 0000.0001) // =======================================================
(PID.TID 0000.0001) // Field hFacC at iteration          0
(PID.TID 0000.0001) // CMIN =          2.000000000000000E-01
(PID.TID 0000.0001) // CMAX =          1.000000000000000E+00
(PID.TID 0000.0001) // CINT =          2.962962962962963E-02
(PID.TID 0000.0001) // SYMBOLS (CMIN->CMAX): -abcdefghijklmnopqrstuvwxyz+
(PID.TID 0000.0001) //                  0.0: .
(PID.TID 0000.0001) // RANGE I (Lo:Hi:Step):(    -1:   194:     1)
(PID.TID 0000.0001) // RANGE J (Lo:Hi:Step):(    34:    -1:    -1)
(PID.TID 0000.0001) // RANGE K (Lo:Hi:Step):(   1:   1:   1)
(PID.TID 0000.0001) // =======================================================
(PID.TID 0000.0001) K =   1
(PID.TID 0000.0001) //                I=8       I=18      I=28      I=34      I=44      I=54      I=64      I=70      I=80      I=90      I=96      I=106     I=116     I=126     I=132     I=142     I=152     I=162     I=168     I=178     I=188
(PID.TID 0000.0001) // |--J--|101234567|901234567|901234567|901234123|567890123|567890123|567890123|563456789|123456789|123456789|123456785|789012345|789012345|789012345|789078901|345678901|345678901|345678901|901234567|901234567|901234567|901234
(PID.TID 0000.0001) //     34 +++++++++++++++++xsh-.-a.v+++.............+tsuuslc............km.l+++p+++++++++++++++ueloqpk-......e+++++++++++++++++++++++++++++++++++++++++++++++++++++++++++++++hdc.-a-o+++++++++++++++++++++++++++++++++++++++++++++
(PID.TID 0000.0001) //     33 +++++++++++++++++wa...--flu..............i+otuqoee-...........-q.e+++vvp++++++++++++xgelnqmia.......+++++++++++++++++++++++++++++++++++++++++++++++++++++++++++++++upf--...+++++++++++++++++++++++++++++++++++++++++++++
(PID.TID 0000.0001) //     32 +++++++++++++++++d.--.-..k....cipg..pg....u.-tkc..............mxydh+khj.+++++++++++zmcmlmkije.......++++++++++++++++++++++++++++++++++++++++++++++++++++++++++++++ysmd-....p++++++++++++++++++++++++++++++++++++++++++++
(PID.TID 0000.0001) //     31 +++++++++++++++u..m+tt.i.w...g-knu..nu.......jf...............uu+vmvbhw+++++++++++wvkejmklime-.....n++++++++++++++++++++++++++++++++++++++++++++++++++++++++++++++ztpoh..-a.ap++++++++++++++++++++++++++++++++++++++++++
(PID.TID 0000.0001) //     30 ++++++++++++++++-.++++q++++++e..gur.gur......................prx+z+-g+++++++++++++uuidjqvokpg-....-+++++++++++++++++++++++++++++++++++++++++++++++++++++++++++++wtwpmkki-hi...++++++++++++++++++++++++++++++++++++++++++
(PID.TID 0000.0001) //     29 ++++++++++++++++ee...x+++++++...dluxdlux.....................nwx+++z+++++++++++++stk-airxspqjc-...-++++++++++++++++++++++++++++++++++++++++++++++++++++++++++++yomuunjicafifcgq+++++++++++++++++++++++++++++++++++++++++
(PID.TID 0000.0001) //     28 +++++++++++++++....ihhmwstuuf....clx.clxi.......l............qhio+++++++++++++++++qhecju+zuoif-...e++++++++++++++++++++++++++++++++++++++++++++++++++++++++++++xmovxmkkjpqlorrqt++++++++++++++++++++++++++++++++++++++++
(PID.TID 0000.0001) //     27 ++++++++++++++l..ddjjc-ktttqhf...-am.-amw-.....bnn...........lh.q++++++++++++++++++tijov++ypiga-..p+++++++++++++++++++++++++++++++++++++++++++++++++++++++++++zg-nvyuoiemtvxxxww++++++++++++++++++++++++++++++++++++++++
(PID.TID 0000.0001) //     26 +++++++++++++viejmi---bbmkijogd....h...hwvd+meethkjj........--d.-++++++++++++++++++++ork++wqkkda..q+++++++++++++++++++++++++++++++++++++++++++++++++++++++++++m..lzzwljkmiqsvxyyu+++u+++++++++++++++++++++++++++++++++++
(PID.TID 0000.0001) //     25 ++++++++++++ypomooc....--g.foh-+...k...ktv-d+++wcgghkx......kjq..+++++++++++++++++++++erxpnrlji...r+++++++++++++++++++++++++++++++++++++++++++++++++++++++++++g...yyxppi....kimvp+++p+++++++++++++++++++++++++++++++++++
(PID.TID 0000.0001) //     24 ++++++++++++yplmmof..-...d-fmi.+...h...hott++++uieegh+q-...kwy+++++++++++++++++++++it+.lxorulgk...++++++++++++++++++++++++++++++++++++++++++++++w+++++++++++++-kktwxur-........mry++ry++++++++++++++++++++++++++++++++++
(PID.TID 0000.0001) //     23 ++++++++++++yslmmldh..iii..fhia.k..-k..--u++++++iela+++r...gt+++.n++++++++++++++++x..vsh.qryrmk...b+++++++++++++++++++++++++++++++++++++++++++++vz+++++++++.+v..nnvwsn....s.....cao+cao++++++++++++++f..bw++++++++++++++
(PID.TID 0000.0001) //     22 ++++++++++++ytpommjkfglmh...-i..k..ek..e++++++++mdl+++++oek.c+++j++++++++++++++++++...sxxcuyrtm-...kv+++++++++++++++++++++++++++++++++++++++++++kmx+++++++++++...-vwo...++++++.....-...-s+++++++++++........y+++++++++++
(PID.TID 0000.0001) //     21 ++++++++++++zojklnmmgjmmd..--g...f++.f+++++++++++.b+++++ytmr.+++ms+++++++++++++++++.....j-txuz+-...-nr++++++++++++++++++++++++++++++++++++++++++ecgu++++++l+++z........++++++++++j..+j...ql+++-+++++.........+++++++++++
(PID.TID 0000.0001) //     20 +++++++++++++fbhlokj.cbji--ffe..........+++++++++-w++++++tyyz++zylm++++++++++++++u+.......m+++++.ekgxw++++++++++++++++++++++++++++++++++++++++++jmeeiw++++w+++so+x...++++++++++++++.+++..q++++..r++e.........+++++++++++
(PID.TID 0000.0001) //     19 +++++++++++++ziioppop...e-.-fd...-cn.-cn++++++++++k++++++p+++++k+q.+++++u++++++++-+z......++++++okqv++++++++++++++++++++++++++++++++++++++++++++mlll.-wyz+x+++.++++++++++++++++++++++++++++++++..f+a.........+++++++++++
(PID.TID 0000.0001) //     18 ++++++++++++++++++++u.-aed-......jr+.jr+++++++++++++++++.-j+++.a++++++++.+++wuv++++++...w++++++++zt+++++++++++++++++++++++++++++++++++++++++++++kmnokdry++++..m+++++++++++++++++++++++++++++++++..ve..........++++++++++
(PID.TID 0000.0001) //     17 +++++++++++++++++++++ldglkg.....ow++ow++++++++++++++++++q.w+wj.-v++u++++.dwxppl++++++++v++++++++zul+++++++++++++++++++++++++++++++++++++++++++++lkqqssuz++zx..++++++++++++++++++++++++++++++++++..............++++++++++
(PID.TID 0000.0001) //     16 zy+++++++++++++++++++qdfljf.....w+++w++++++++++++++++++++.lz+mm+.m+wqoqom.asy+++++++++++++++++++y-nn++++++++++++++++++++++++++++++++u+++++++++++iimpmrxz+++u.r++++++++++++++++++++++++++++++++++-.............++++++++++
(PID.TID 0000.0001) //     15 tsuht+++++++++++++++++jcefc.....++++++++++++++++++++++++++.x++x+dj++zo..+-.hozz..jz++wh+++++++++v-c.+++++++++++++++++++++++++++++++++++++++jku++mjiklmuy+++s.+++++++++++++++++++++++++++++++++++w.............++++++++++
(PID.TID 0000.0001) //     14 pmpdfg++++++++++++++++o.........+++++++++++++++++++++++++++ppqw+++++++++t-.-kyur--.c++++++++++z+uh.l+++++++++++++++++++++++++++++++++++++++++-g+eea-afhlvvc.h++++++++++++++++++++++++++++++++++++...iz........++++++++++
(PID.TID 0000.0001) //     13 odfchn++++++++++++++++e........c+++++++++++++++++++++++++++++++mysy+++++t...hvzzywqm++++++p++yyvue.j.-++++++++++++++++++++++++++++++++++++++++++-...........+++++++++++++++++++++++++++++++++++++x..n+v......-++++++++++
(PID.TID 0000.0001) //     12 h--.q+++++++++++++++++.........hs+++s++++++++++++++++++++++++++++++++xz+.---ftvwwtqo++nex+xm+zue-..et.g++++++++++++++++++++++++++++++w++++++++++............+++++++++++++++++++++++++++++++++++++++++++......+++++++++++
(PID.TID 0000.0001) //     11 ..--u+++++++++++++++++.........-s++.s++.++++++++++++++++++++++++++rvsrz+i.-abtstwuuwyzvzzvsuuq.....p+xp+++++++++++++++++++++++++++++++++++++++++..........+++++++++++++++++++++++++++++++++++++++++++++.....w+++++++++++
(PID.TID 0000.0001) //     10 ...ay+++++++++++++++++........oy++..++..+++++++++++++++++++++++++xhjoqpx..f.drtrruuutwsxyunijq-....+z++++++++++++++++++++++++++++s++++++++++++++........y++++++++++++++++++++++++++++++++++++++++++++++....j++++++++++++
(PID.TID 0000.0001) //      9 -..-++++++++++++++++++i.......y+++..++..++++++++++++++++++++++zyuqmklmpowklvsttrtututabxxr.acjoon-a++++++++++++++++++++++++++++++z++++++++++++++.....-hkh+++++++++++++++++++++++++++++++++++++++++++++++++++++++++++++++
(PID.TID 0000.0001) //      8 a..o+++++++++++++++++++......sx+++.u++.u++++++++++++++++++++++obhlkjfenp..u+xutsuuusfswxxudbdimic..ooo++++++++++++++++++++++++++x+++++++++++++++......v+++++++++++++++++++++++++++++++++++++++++++++++++++++++++++++++++
(PID.TID 0000.0001) //      7 .p+++++++++++++++++++++......y++++-+++-+++++++++++++++++++++++medihdceou...+wvturttrmwwxvugggh--....dkqu+++++++++++++++++++++++++++++++oh.a--z-+n..ee+++++++++++++++++++++++++++++++++++++++++++++++++++++++++++++++++++
(PID.TID 0000.0001) //      6 a++++++++++++++++++++++d.....+++++++++++++++++++++++++++++++++mgfihcdiuy...+..vuxvobrwxxwvghg-...ai.j.+gv+++v++++++++++++++++++++l+++xsjmrml-my+++++++++++++++++++++++++++++++++++++++++++++++++++++++++++++++++++++++++
(PID.TID 0000.0001) //      5 p++++++++++++++++++++++s....++++++++++++++++++++++++++++++++++oijlnnnqvyg.....wzzumisuvwvtmlf.....khj-++km++km++++++++++++++++++.-+++mmhousvwk++++++++++++++++++++++++++++++++++++++++++++++++++++++++++++++++++++++++++
(PID.TID 0000.0001) //      4 ++++++++++++++++++++++++dac+++++++++++++++++++++++++++++++++++olntutttuo-c....x++tnpqnsvq.........nc-c+++bl++bl++++++++++++++++..++te-oqruuwwu++++++++++++++++++++++++++++++++++++++++++++++++++++++++++++++++++++++++++
(PID.TID 0000.0001) //      3 ++++++++++++++++++++++++++++++++++++++++++++++++++++++++++++++++++++zurnki....xwutrtfhek..........nm.-+++h.++h.++++++++++++++++..+zxvuqtvwvoqx++++++++++++++++++++++++++++++++++++++++++++++++++++++++++++++++++++++++++
(PID.TID 0000.0001) //      2 ++++++++++++++++++++++++++++++++++++++++++++++++++++++++++++++++++++++rpnp....+tsuuslc............km.l+++p.++p.+++++++++++++++o.++++xopuyyonpy++++++++++++++++++++++++++++++++++++++++++++++++++++++++++++++++++++++++++
(PID.TID 0000.0001) //      1 ++++++++++++++++++++++++++++++++++++++++++++++++++++++++++++++++++++++zyug...i+otuqoee-...........-q.e+++vjw+vjw++++++++++++++q.++zzppnouvurrz++++++++++++++++++++++++++++++++++++++++++++++++++++++++++g++++++-y+++++++
(PID.TID 0000.0001) //      0 ++++++++++++++++++++++++++++++++++++++++++++++++++++++++++++++++++++++++......u.-tkc..............mxydh+khhhkhhh++++++++++++++oo++xrqmeeiqtu+++++++++++++++++++++++++++++++++++++++++++++++++++++++++++u-++++++zmkuxyzzr
(PID.TID 0000.0001) //     -1 ++++++++++++++++++++++++++++++++++++++++++++++++++++++++++++++++++++++++.........jf...............uu+vmvbhkbbhkbg+++++++++++++qz+++solfcdntz+++++++++++++++++++++++++++++++++++++++++++++++++++++++++++k+++++++--wwqpryp
(PID.TID 0000.0001) // =======================================================
(PID.TID 0000.0001) // END OF FIELD                                          =
(PID.TID 0000.0001) // =======================================================
(PID.TID 0000.0001) 
(PID.TID 0000.0001) // =======================================================
(PID.TID 0000.0001) // Field hFacW at iteration          0
(PID.TID 0000.0001) // CMIN =          2.000000000000000E-01
(PID.TID 0000.0001) // CMAX =          1.000000000000000E+00
(PID.TID 0000.0001) // CINT =          2.962962962962963E-02
(PID.TID 0000.0001) // SYMBOLS (CMIN->CMAX): -abcdefghijklmnopqrstuvwxyz+
(PID.TID 0000.0001) //                  0.0: .
(PID.TID 0000.0001) // RANGE I (Lo:Hi:Step):(    -1:   194:     1)
(PID.TID 0000.0001) // RANGE J (Lo:Hi:Step):(    34:    -1:    -1)
(PID.TID 0000.0001) // RANGE K (Lo:Hi:Step):(   1:   1:   1)
(PID.TID 0000.0001) // =======================================================
(PID.TID 0000.0001) K =   1
(PID.TID 0000.0001) //                I=8       I=18      I=28      I=34      I=44      I=54      I=64      I=70      I=80      I=90      I=96      I=106     I=116     I=126     I=132     I=142     I=152     I=162     I=168     I=178     I=188
(PID.TID 0000.0001) // |--J--|101234567|901234567|901234567|901234123|567890123|567890123|567890123|563456789|123456789|123456789|123456785|789012345|789012345|789012345|789078901|345678901|345678901|345678901|901234567|901234567|901234567|901234
(PID.TID 0000.0001) //     34 +++++++++++++++++xsh-..-..v++..............tssuslc.............k..l++p..+++++++++++++ueelopk-.......e++++++.+++++++++++++++++++++++++++++++++++.+++++++++++++++++++hdc..---o+++++++.+++++++++++++++++++++++++++++++++++.
(PID.TID 0000.0001) //     33 +++++++++++++++++wa....--fl...............iootqoee-............-..e++vjp++++++++++++xgeelnmia........++++++++++++++++++++++++++++++++++++++++++++++++++++++++++++++upf--....++++++++++++++++++++++++++++++++++++++++++++
(PID.TID 0000.0001) //     32 +++++++++++++++++d..-..........cig..ig.......-kc...............mxddhkhh.+++++++++++zmccllkiie........+++++++++++++++++++++++++++++++++++++++++++++++++++++++++++++ysmd-.....p+++++++++++++++++++++++++++++++++++++++++++
(PID.TID 0000.0001) //     31 +++++++++++++++u...mtt........--kn..kn........f................uuvmmbbhw++++++++++wvkeejkkiie-......n+++++++++++++++++++++++++++++++++++++++++++++++++++++++++++++ztpoh...-..ap+++++++++++++++++++++++++++++++++++++++++
(PID.TID 0000.0001) //     30 ++++++++++++++++-..+++qq+++++e...gr..gr.......................prxzz--g++++++++++++uuiddjqokkg-.....-++++++++++++++++++++++++++++++++++++++++++++++++++++++++++++wttpmkki--h....+++++++++++++++++++++++++++++++++++++++++
(PID.TID 0000.0001) //     29 ++++++++++++++++ee....x++++++....dlu.dlu......................nwx++zz++++++++++++ssk--airsppjc-....-+++++++++++++++++++++++++++++++++++++++++++++++++++++++++++yommunjicaaffccgq++++++++++++++++++++++++++++++++++++++++
(PID.TID 0000.0001) //     28 +++++++++++++++.....hhhmsstuf.....cl..cli.....................hhio++++++++++++++++qheccjuzuoif-....e+++++++++++++++++++++++++++++++++++++++++++++++++++++++++++xmmovmkkjjpllorqqt+++t+++++++++++++++++++++++++++++++++++
(PID.TID 0000.0001) //     27 ++++++++++++++l...ddjc--kttqhf....-a..-am-......bn............h..q+++++++++++++++++tiijov+ypiga-...p++++++++++++++++++++++++++++++++++++++++++++++++++++++++++zg--nvuoieemtvxxwww+++w+++++++++++++++++++++++++++++++++++
(PID.TID 0000.0001) //     26 +++++++++++++vieeji----bbkiijgd.........hvddmeeehhjj.........--..-+++++++++++++++++++ookk+wqkkda...q++++++++++++++++++++++++++++++++++++++++++++++++++++++++++m...lzwljjkiiqsvxyuu++uu++++++++++++++++++++++++++++++++++
(PID.TID 0000.0001) //     25 ++++++++++++ypommoc.....--..fh--........kt--d++wccgghk.......jj...++++++++++++++++++++eerpnnlji....r++++++++++++++++++++++++++++++++++++++++++++++++++++++++++g....yxppi.....iimpp++pp++++++++++++++++++++++++++++++++++
(PID.TID 0000.0001) //     24 ++++++++++++ypllmmf.......--fi..........hott+++uieeeghq-....kwy++++++++++++++++++++iit..loorlgg....+++++++++++++++++++++++++++++++++++++++++++++uw++++++++++++--kktwur-.........mry+mry+++++++++++++++++++++++++++++++++
(PID.TID 0000.0001) //     23 ++++++++++++ysllmldd...ii...fha.........--u+++++ieeaa++r....gt++..n+++++++++++++++x...sh..qrrmk....b++++++++++++++++++++++++++++++++++++++++++++uvz++++++++..v...nnvsn...........aao.aao+++++++++++++f...bw+++++++++++++
(PID.TID 0000.0001) //     22 ++++++++++++ytpommjjffglh....-..........e+++++++mddl++++oee..c++jj+++++++++++++++++....sxccurrm-....kv++++++++++++++++++++++++++++++++++++++++++ikmx++++++++++....-vo....+++++..........-s++++++++++.........y++++++++++
(PID.TID 0000.0001) //     21 ++++++++++++zojjklmmggjmd...--....f+..f++++++++++..b++++ytmm..++mms++++++++++++++++......--tuuz-....-nr+++++++++++++++++++++++++++++++++++++++++dccgu+++++ll++z.........+++++++++j..+j....ll++--++++..........++++++++++
(PID.TID 0000.0001) //     20 +++++++++++++fbbhlkj..bbi---fe...........++++++++--w+++++ttyyz+zyllm+++++++++++++uu........m++++..eggww+++++++++++++++++++++++++++++++++++++++++jjeeeiw+++ww++soox....+++++++++++++.+++...q+++...r+e..........++++++++++
(PID.TID 0000.0001) //     19 +++++++++++++ziiiopoo....-..-d....-c..-cn+++++++++kk+++++pp++++kkq..++++uu+++++++--z.......+++++okkqv+++++++++++++++++++++++++++++++++++++++++++mlll..-wyzxx++..+++++++++++++++++++++++++++++++...fa..........++++++++++
(PID.TID 0000.0001) //     18 w+++++++++++++++++++u..-ad-.......jr..jr++++++++++++++++..-j++..a+++++++..++wuuv+++++....w+++++++ztt++++++++++++++++++++++++++++++++++++++++++++kkmnkddry+++...m++++++++++++++++++++++++++++++++...e...........+++++++++
(PID.TID 0000.0001) //     17 t++++++++++++++++++++lddgkg......ow+.ow+++++++++++++++++q..wwj..-v+uu+++..dwppll+++++++vv+++++++zull++++++++++++++++++++++++++++++++++++++++++++lkkqqssuz+zx...+++++++++++++++++++++++++++++++++...............+++++++++
(PID.TID 0000.0001) //     16 wyy++++++++++++++++++qddfjf......w++.w+++++++++++++++++++..lzmmm..mwqooom..asy++++++++++++++++++y--nn+++++++++++++++++++++++++++++++uu++++++++++iiimmmrxz++u..r+++++++++++++++++++++++++++++++++-..............+++++++++
(PID.TID 0000.0001) //     15 psshht++++++++++++++++jccec......+++.+++++++++++++++++++++..x+xxddj+zo..+-..hoz...jz+whh++++++++v--..++++++++++++++++++++++++++++++++++++++jjku+mjiiklmuy++s..++++++++++++++++++++++++++++++++++w..............+++++++++
(PID.TID 0000.0001) //     14 mmmddfg+++++++++++++++o..........+++.++++++++++++++++++++++pppqw++++++++t-..-kur--..c+++++++++zzuh..l++++++++++++++++++++++++++++++++++++++++--geea--afhlvc..h+++++++++++++++++++++++++++++++++++....i.........+++++++++
(PID.TID 0000.0001) //     13 kddcchn+++++++++++++++e.........c+++c++++++++++++++++++++++++++mmssy++++t....hvzywqmm+++++pp+yyvue....-+++++++++++++++++++++++++++++++++++++++++-............++++++++++++++++++++++++++++++++++++x...nv.......-+++++++++
(PID.TID 0000.0001) //     12 h--..q++++++++++++++++..........hs++hs+++++++++++++++++++++++++++++++xxz..---ftvwtqoo+neexxmmzue-...e..g+++++++++++++++++++++++++++++ww+++++++++.............++++++++++++++++++++++++++++++++++++++++++.......++++++++++
(PID.TID 0000.0001) //     11 ...--u++++++++++++++++..........-s+.-s+..+++++++++++++++++++++++++rrsrrzi..-absstuuuwyvvzvssuq......pxpp++++++++++++++++++++++++++++++++++++++++...........++++++++++++++++++++++++++++++++++++++++++++......w++++++++++
(PID.TID 0000.0001) //     10 ....ay++++++++++++++++.........oy+..y+...++++++++++++++++++++++++xhhjopp.....drrrruuttssxuniij-.....zz+++++++++++++++++++++++++++ss+++++++++++++.........y+++++++++++++++++++++++++++++++++++++++++++++.....j+++++++++++
(PID.TID 0000.0001) //      9 -...-+++++++++++++++++i........y++..++...+++++++++++++++++++++zyuqmkklmowkklsstrrttttaabxr..acjon--a+++++++++++++++++++++++++++++zz+++++++++++++......-hhh++++++++++++++++++++++++++++++++++++++++++++++++++++++++++++++
(PID.TID 0000.0001) //      8 a...o++++++++++++++++++.......sx++..++..u+++++++++++++++++++++obbhkjfeen...uxutssuusffswxudbbdiic...ooo+++++++++++++++++++++++++xx++++++++++++++.......v++++++++++++++++++++++++++++++++++++++++++++++++++++++++++++++++
(PID.TID 0000.0001) //      7 ..p++++++++++++++++++++.......y+++--++--++++++++++++++++++++++meddhdcceo....wvttrrtrmmwwvugggg--.....dkqu+++u++++++++++++++++++++++++++oh..-----n...ee++++++++++++++++++++++++++++++++++++++++++++++++++++++++++++++++++
(PID.TID 0000.0001) //      6 .a+++++++++++++++++++++d......++++++++++++++++++++++++++++++++mgffhccdiu.......uuvobbrwxwvggg-....a....ggv++gv+++++++++++++++++++ll++xsjjmml--my++++++++++++++++++++++++++++++++++++++++++++++++++++++++++++++++++++++++
(PID.TID 0000.0001) //      5 .p+++++++++++++++++++++s.....+++++++++++++++++++++++++++++++++oiijlnnnqve......wzumiisuvvtmlf......hh--+kkm+kkm+++++++++++++++++..-++mmhhossvkk+++++++++++++++++++++++++++++++++++++++++++++++++++++++++++++++++++++++++
(PID.TID 0000.0001) //      4 ++++++++++++++++++++++++daac++++++++++++++++++++++++++++++++++ollnttttto.-.....x+tnnpnnsq..........c--c++bbl+bbl+++++++++++++++...+te--oqruuwuu+++++++++++++++++++++++++++++++++++++++++++++++++++++++++++++++++++++++++
(PID.TID 0000.0001) //      3 ++++++++++++++++++++++++++++++++++++++++++++++++++++++++++++++++++++zurn.i.....wutrrffee...........m..-++h..+h..+++++++++++++++...zxvuqqtvvooqx+++++++++++++++++++++++++++++++++++++++++++++++++++++++++++++++++++++++++
(PID.TID 0000.0001) //      2 ++++++++++++++++++++++++++++++++++++++++++++++++++++++++++++++++++++++rpgn.....tssuslc.............k..l++p..+p..++++++++++++++o..+++xoopuyonnpy+++++++++++++++++++++++++++++++++++++++++++++++++++++++++++++++++++++++++
(PID.TID 0000.0001) //      1 ++++++++++++++++++++++++++++++++++++++++++++++++++++++++++++++++++++++zyug....iootqoee-............-..e++vjj+vjjw+++++++++++++q..+zzppnnouurrrz+++++++++++++++++++++++++++++++++++++++++++++++++++++++++gg+++++--y++++++
(PID.TID 0000.0001) //      0 ++++++++++++++++++++++++++++++++++++++++++++++++++++++++++++++++++++++z+.........-kc...............mxddhkhhhkhhhh+++++++++++++ooo+xrqmeeeiqtu++++++++++++++++++++++++++++++++++++++++++++++++++++++++++u--+++++zmkkuxyzr
(PID.TID 0000.0001) //     -1 ++++++++++++++++++++++++++++++++++++++++++++++++++++++++++++++++++++++yp..........f................uuvmmbbhwbbkbbg++++++++++++qqz++solfccdntz++++++++++++++++++++++++++++++++++++++++++++++++++++++++++kk++++++---wqppr+
(PID.TID 0000.0001) // =======================================================
(PID.TID 0000.0001) // END OF FIELD                                          =
(PID.TID 0000.0001) // =======================================================
(PID.TID 0000.0001) 
(PID.TID 0000.0001) // =======================================================
(PID.TID 0000.0001) // Field hFacS at iteration          0
(PID.TID 0000.0001) // CMIN =          2.000000000000000E-01
(PID.TID 0000.0001) // CMAX =          1.000000000000000E+00
(PID.TID 0000.0001) // CINT =          2.962962962962963E-02
(PID.TID 0000.0001) // SYMBOLS (CMIN->CMAX): -abcdefghijklmnopqrstuvwxyz+
(PID.TID 0000.0001) //                  0.0: .
(PID.TID 0000.0001) // RANGE I (Lo:Hi:Step):(    -1:   194:     1)
(PID.TID 0000.0001) // RANGE J (Lo:Hi:Step):(    34:    -1:    -1)
(PID.TID 0000.0001) // RANGE K (Lo:Hi:Step):(   1:   1:   1)
(PID.TID 0000.0001) // =======================================================
(PID.TID 0000.0001) K =   1
(PID.TID 0000.0001) //                I=8       I=18      I=28      I=34      I=44      I=54      I=64      I=70      I=80      I=90      I=96      I=106     I=116     I=126     I=132     I=142     I=152     I=162     I=168     I=178     I=188
(PID.TID 0000.0001) // |--J--|101234567|901234567|901234567|901234123|567890123|567890123|567890123|563456789|123456789|123456789|123456785|789012345|789012345|789012345|789078901|345678901|345678901|345678901|901234567|901234567|901234567|901234
(PID.TID 0000.0001) //     34 +++++++++++++++++wa...--.lu..........g....+osuqoec............-m.e+++p..++++++++++++xgelnqmi-.......+++++++.+++++++++++++++++++++++++++++++++++.+++++++++++++++++++hdc.-...++++++++.+++++++++++++++++++++++++++++++++++.
(PID.TID 0000.0001) //     33 +++++++++++++++++d....-..k................u.-tkc..............-q.dh+khj.+++++++++++zmcelmkiia.......++++++++++++++++++++++++++++++++++++++++++++++++++++++++++++++ysmd-....p++++++++++++++++++++++++++++++++++++++++++++
(PID.TID 0000.0001) //     32 +++++++++++++++u...--....k....-ing..ng.......jf...............muydhvbhj.++++++++++wvkcjlkkije.......++++++++++++++++++++++++++++++++++++++++++++++++++++++++++++++ysmd-.....ap++++++++++++++++++++++++++++++++++++++++++
(PID.TID 0000.0001) //     31 +++++++++++++++u..m+tt.i.w...e..gu..gu........................ru+vm-bhw+++++++++++uuidjmklime-.....n++++++++++++++++++++++++++++++++++++++++++++++++++++++++++++wtwpmkh..-a...++++++++++++++++++++++++++++++++++++++++++
(PID.TID 0000.0001) //     30 ++++++++++++++++-....xq++++++...dlr.dlr......................nrx+z+-g++++++++++++stk-aiqvokpg-....-++++++++++++++++++++++++++++++++++++++++++++++++++++++++++++yomupmjic-fi...q+++++++++++++++++++++++++++++++++++++++++
(PID.TID 0000.0001) //     29 +++++++++++++++......hmwstuuf....clx.clx.....................nhio++z+++++++++++++sqh-airxspoic-...-++++++++++++++++++++++++++++++++++++++++++++++++++++++++++++xmmuumjicafifcgqt++++++++++++++++++++++++++++++++++++++++
(PID.TID 0000.0001) //     28 ++++++++++++++l....ihc-ksttqf....-am.-ami.......l............lh.o+++++++++++++++++qhecju+zuoif-...e+++++++++++++++++++++++++++++++++++++++++++++++++++++++++++zg-nvxmkiemqlorrqt++++++++++++++++++++++++++++++++++++++++
(PID.TID 0000.0001) //     27 +++++++++++++vi..dd----bmkijhf.....h...hw-.....bhk...........-d.-++++++++++++++++++tijok++wpiga-..p+++++++++++++++++++++++++++++++++++++++++++++++++++++++++++m..lvyuliemiqsvxwwu+++u+++++++++++++++++++++++++++++++++++
(PID.TID 0000.0001) //     26 ++++++++++++ypiejmc....--g.fog-....h...htv-dmeetcggh........--d..++++++++++++++++++++oekxpnqkjd...q+++++++++++++++++++++++++++++++++++++++++++++++++++++++++++g...yywlji....kimvp+++p+++++++++++++++++++++++++++++++++++
(PID.TID 0000.0001) //     25 ++++++++++++yplmmoc......d.fmh.+...h...hot-d+++uceeghx......kjq..++++++++++++++++++it+.lxonrlgi...r+++++++++++++++++++++++++++++++++++++++++++++w+++++++++++++-...wxup-........mpy++py++++++++++++++++++++++++++++++++++
(PID.TID 0000.0001) //     24 ++++++++++++yplmmld........fhi.....-...--tt++++uieeah+q-...gty++.n++++++++++++++++x..v.h.orulgk...b+++++++++++++++++++++++++++++++++++++++++++++vz+++++++++.+v..knvwsn..........cao+cao++++++++++++++f..bw++++++++++++++
(PID.TID 0000.0001) //     23 ++++++++++++yslmmldh..iih...-i..k..-k..--u++++++idla+++r....c+++.n++++++++++++++++x...sh.cryrmk....kv+++++++++++++++++++++++++++++++++++++++++++kmx++++++++.+v...-vwo.....s........-...-s+++++++++++........y+++++++++++
(PID.TID 0000.0001) //     22 ++++++++++++yojklmjkfglmd...-g.....e...e++++++++m.b+++++oek..+++js+++++++++++++++++.....j-txrtm-...-nr++++++++++++++++++++++++++++++++++++++++++ecgu++++++l+++..........++++++...........ql+++-+++++.........+++++++++++
(PID.TID 0000.0001) //     21 ++++++++++++zfbhlnkj.cbjd..--e..........+++++++++.b+++++ytmr.++zmlm++++++++++++++u+.......mxuz+-...-nr++++++++++++++++++++++++++++++++++++++++++eceeiw++++l+++s........++++++++++j..+j...ql+++..r++e.........+++++++++++
(PID.TID 0000.0001) //     20 +++++++++++++fbhlokj....e-.-fd..........+++++++++-k++++++pyyz++kyl.+++++u++++++++-+.......m+++++.ekgxw++++++++++++++++++++++++++++++++++++++++++jlee.-wyz+w+++.o+x...++++++++++++++.+++..q++++...f+a.........+++++++++++
(PID.TID 0000.0001) //     19 +++++++++++++ziioppop...e-.......-cn.-cn++++++++++k+++++.-j+++.a+q.+++++.+++wuv++-+z......++++++okqv++++++++++++++++++++++++++++++++++++++++++++klll.-ryz+x+...++++++++++++++++++++++++++++++++...va..........++++++++++
(PID.TID 0000.0001) //     18 ++++++++++++++++++++u.-aed-......jr+.jr+++++++++++++++++..j+wj.-v++u++++.dwxppl++++++...w+++++++zul+++++++++++++++++++++++++++++++++++++++++++++kknokdry++zx..m+++++++++++++++++++++++++++++++++..............++++++++++
(PID.TID 0000.0001) //     17 zy+++++++++++++++++++ldfljf.....ow++ow++++++++++++++++++q.lzwj.-.m+uqoqo..asppl++++++++v++++++++y-ln++++++++++++++++++++++++++++++++u+++++++++++iimpmruz++zu..++++++++++++++++++++++++++++++++++..............++++++++++
(PID.TID 0000.0001) //     16 tsuht++++++++++++++++qdcefc.....w+++w++++++++++++++++++++..x+mm+.j+wqo..m..hozz..jz++wh+++++++++v-c.++++++++++++++++++++++++++++++++u++++++jku++iiiklmuy+++s.r++++++++++++++++++++++++++++++++++-.............++++++++++
(PID.TID 0000.0001) //     15 pmpdfg++++++++++++++++j.........++++++++++++++++++++++++++.ppqw+dj++zo..t-.-kyu..-.c+wh+++++++z+u-..+++++++++++++++++++++++++++++++++++++++jk-g+eea-afhlvvc..+++++++++++++++++++++++++++++++++++w.............++++++++++
(PID.TID 0000.0001) //     14 odfcfg++++++++++++++++e.........+++++++++++++++++++++++++++ppqwmysy+++++t...hvur--.c++++++p++yyvue.j.-+++++++++++++++++++++++++++++++++++++++-g+-...........h++++++++++++++++++++++++++++++++++++...iz........++++++++++
(PID.TID 0000.0001) //     13 h--.hn++++++++++++++++.........cs+++s++++++++++++++++++++++++++mysy++xz+....ftvwwtqm++nex+pm+yue-..e..g++++++++++++++++++++++++++++++w++++++++++............+++++++++++++++++++++++++++++++++++++x..n+v......-++++++++++
(PID.TID 0000.0001) //     12 ..-.q+++++++++++++++++.........-s++.s++.++++++++++++++++++++++++++rvsrz+..--btstwtqoyznexvsmuq.....et.g++++++++++++++++++++++++++++++w++++++++++............+++++++++++++++++++++++++++++++++++++++++++......+++++++++++
(PID.TID 0000.0001) //     11 ...-u+++++++++++++++++.........-s+..s+..+++++++++++++++++++++++++xhjoqpx..-.brsrruuutwsxyunijq.....pzxp++++++++++++++++++++++++++s++++++++++++++..........+++++++++++++++++++++++++++++++++++++++++++++.....w+++++++++++
(PID.TID 0000.0001) //     10 ...-y+++++++++++++++++........oy++..++..++++++++++++++++++++++zyuqhjlmpo..f.drtrrututabxxr.acj-....+z++++++++++++++++++++++++++++s++++++++++++++........h++++++++++++++++++++++++++++++++++++++++++++++....j++++++++++++
(PID.TID 0000.0001) //      9 -..-++++++++++++++++++i.......x+++..++..++++++++++++++++++++++obhlkjfeno..lvsttrtutsfabxxr.acimic..ooo++++++++++++++++++++++++++xz++++++++++++++......hkh+++++++++++++++++++++++++++++++++++++++++++++++++++++++++++++++
(PID.TID 0000.0001) //      8 ...o+++++++++++++++++++......sx+++.u++.u++++++++++++++++++++++mbdihdcenp...+wutsrttrfswxvudbdh--....dkqu++++++++++++++++++++++++x++++++oh.a--z-+......v+++++++++++++++++++++++++++++++++++++++++++++++++++++++++++++++++
(PID.TID 0000.0001) //      7 .p+++++++++++++++++++++......y++++-+++-+++++++++++++++++++++++medihcceou...+..turtobmwwxvuggg-......d.qgv+++v++++++++++++++++++++l+++xsjh.a--m-+n..ee+++++++++++++++++++++++++++++++++++++++++++++++++++++++++++++++++++
(PID.TID 0000.0001) //      6 a++++++++++++++++++++++d.....+++++++++++++++++++++++++++++++++mgfihcdiuy......vuxumbruvwvtghf.....i.j.+gkm++km++++++++++++++++++.-+++mmhmrml-ky+++++++++++++++++++++++++++++++++++++++++++++++++++++++++++++++++++++++++
(PID.TID 0000.0001) //      5 p++++++++++++++++++++++s....++++++++++++++++++++++++++++++++++oijlnnnquo-.....wzztmiqnsvq.........kc--++kbl+kbl++++++++++++++++..-+te-mhousvwk++++++++++++++++++++++++++++++++++++++++++++++++++++++++++++++++++++++++++
(PID.TID 0000.0001) //      4 ++++++++++++++++++++++++dac+++++++++++++++++++++++++++++++++++olntutttrn-c....xwutnpfhek..........nc.-+++b.++b.++++++++++++++++..+zte-oqruuoqu++++++++++++++++++++++++++++++++++++++++++++++++++++++++++++++++++++++++++
(PID.TID 0000.0001) //      3 ++++++++++++++++++++++++++++++++++++++++++++++++++++++++++++++++++++zurnki....xtstrsfc............km.-+++h.++h.+++++++++++++++o..+zxvoptvwonpx++++++++++++++++++++++++++++++++++++++++++++++++++++++++++++++++++++++++++
(PID.TID 0000.0001) //      2 ++++++++++++++++++++++++++++++++++++++++++++++++++++++++++++++++++++++rpng....+osuqoec............-m.e+++p.w+p.w++++++++++++++o.++zzponouvonpy++++++++++++++++++++++++++++++++++++++++++++++++++++++++++g++++++-y+++++++
(PID.TID 0000.0001) //      1 ++++++++++++++++++++++++++++++++++++++++++++++++++++++++++++++++++++++zy......u.-tkc..............-q.dh+khhhkhhh++++++++++++++o.++xrpmeeiqtrrz+++++++++++++++++++++++++++++++++++++++++++++++++++++++++u-++++++-mkuxyzzr
(PID.TID 0000.0001) //      0 ++++++++++++++++++++++++++++++++++++++++++++++++++++++++++++++++++++++yp.g.......jf...............muydhvbhj.bvhbg+++++++++++++oo++xrolecdntu+++++++++++++++++++++++++++++++++++++++++++++++++++++++++++k-++++++--kuqpr++
(PID.TID 0000.0001) //     -1 ++++++++++++++++++++++++++++++++++++++++++++++++++++++++++++++++++++++xpgu........................ru+vm-bhw+bhkb-z+++++++++++uqz+++sjkfccntz+++++++++++++++++++++++++++++++++++++++++++++++++++++++++++j+++++++--vwonruz
(PID.TID 0000.0001) // =======================================================
(PID.TID 0000.0001) // END OF FIELD                                          =
(PID.TID 0000.0001) // =======================================================
(PID.TID 0000.0001) 
(PID.TID 0000.0001) GAD_INIT_FIXED: GAD_OlMinSize=  2  0  1
(PID.TID 0000.0001) 
(PID.TID 0000.0001) // ===================================
(PID.TID 0000.0001) // GAD parameters :
(PID.TID 0000.0001) // ===================================
(PID.TID 0000.0001) tempAdvScheme =   /* Temp. Horiz.Advection scheme selector */
(PID.TID 0000.0001)                       2
(PID.TID 0000.0001)     ;
(PID.TID 0000.0001) tempVertAdvScheme =   /* Temp. Vert. Advection scheme selector */
(PID.TID 0000.0001)                       2
(PID.TID 0000.0001)     ;
(PID.TID 0000.0001) tempMultiDimAdvec =   /* use Muti-Dim Advec method for Temp */
(PID.TID 0000.0001)                   F
(PID.TID 0000.0001)     ;
(PID.TID 0000.0001) tempSOM_Advection = /* use 2nd Order Moment Advection for Temp */
(PID.TID 0000.0001)                   F
(PID.TID 0000.0001)     ;
(PID.TID 0000.0001) AdamsBashforthGt = /* apply Adams-Bashforth extrapolation on Gt */
(PID.TID 0000.0001)                   T
(PID.TID 0000.0001)     ;
(PID.TID 0000.0001) AdamsBashforth_T = /* apply Adams-Bashforth extrapolation on Temp */
(PID.TID 0000.0001)                   F
(PID.TID 0000.0001)     ;
(PID.TID 0000.0001) saltAdvScheme =   /* Salt. Horiz.advection scheme selector */
(PID.TID 0000.0001)                       3
(PID.TID 0000.0001)     ;
(PID.TID 0000.0001) saltVertAdvScheme =   /* Salt. Vert. Advection scheme selector */
(PID.TID 0000.0001)                       3
(PID.TID 0000.0001)     ;
(PID.TID 0000.0001) saltMultiDimAdvec =   /* use Muti-Dim Advec method for Salt */
(PID.TID 0000.0001)                   F
(PID.TID 0000.0001)     ;
(PID.TID 0000.0001) saltSOM_Advection = /* use 2nd Order Moment Advection for Salt */
(PID.TID 0000.0001)                   F
(PID.TID 0000.0001)     ;
(PID.TID 0000.0001) AdamsBashforthGs = /* apply Adams-Bashforth extrapolation on Gs */
(PID.TID 0000.0001)                   T
(PID.TID 0000.0001)     ;
(PID.TID 0000.0001) AdamsBashforth_S = /* apply Adams-Bashforth extrapolation on Salt */
(PID.TID 0000.0001)                   F
(PID.TID 0000.0001)     ;
(PID.TID 0000.0001) // ===================================
  Set Alarm for: 20040301  120000, with frequency:       3000, and Tag: radsw
  Set Alarm for: 20040301  120000, with frequency:       3000, and Tag: radlw
  Set Alarm for: 20040301  120000, with frequency:       1500, and Tag: turb
  Set Alarm for: 20040301  120000, with frequency:        730, and Tag: moist
  Set Alarm for: 20040301  120000, with frequency:          0, and Tag: pnt
 FIZHI_INIT_VEG: defining surface type and fraction: ----------------------
(PID.TID 0000.0001)  MDS_READ_FIELD: opening global file: landFrc.2f2.bin
 FIZHI_INIT_VEG: setting surface Tiles:
  bi=   1, bj=   1, # of Land Tiles=       900, Total # of Tiles=      2048
  bi=   2, bj=   1, # of Land Tiles=       772, Total # of Tiles=      2048
  bi=   3, bj=   1, # of Land Tiles=      1190, Total # of Tiles=      2048
  bi=   4, bj=   1, # of Land Tiles=       188, Total # of Tiles=      2048
  bi=   5, bj=   1, # of Land Tiles=       622, Total # of Tiles=      2048
  bi=   6, bj=   1, # of Land Tiles=       306, Total # of Tiles=      2048
 FIZHI_INIT_VEG: done
(PID.TID 0000.0001) ------------------------------------------------------------
(PID.TID 0000.0001) DIAGNOSTICS_SET_LEVELS: done
(PID.TID 0000.0001)  Total Nb of available Diagnostics: ndiagt=   401
(PID.TID 0000.0001)  write list of available Diagnostics to file: available_diagnostics.log
(PID.TID 0000.0001) SETDIAG: Allocate  1 x  1 Levels for Diagnostic #    23 ETAN
(PID.TID 0000.0001) SETDIAG: Allocate 21 x  1 Levels for Diagnostic #   401 DPPHYS
(PID.TID 0000.0001)   space allocated for all diagnostics:      22 levels
(PID.TID 0000.0001) DIAGNOSTICS_SET_POINTERS: done
(PID.TID 0000.0001) ------------------------------------------------------------
(PID.TID 0000.0001) DIAGSTATS_SET_REGIONS: define no region
(PID.TID 0000.0001) ------------------------------------------------------------
(PID.TID 0000.0001)   space allocated for all stats-diags:       0 levels
(PID.TID 0000.0001) DIAGSTATS_SET_POINTERS: done
(PID.TID 0000.0001) ------------------------------------------------------------
  Set Alarm for: 20040301  120000, with frequency:       3000, and Tag: diagtag01
  Set Alarm for: 20040301  120000, with frequency:       3000, and Tag: diagtag02
(PID.TID 0000.0001) INI_GLOBAL_DOMAIN: Found  24 CS-corner Pts in the domain
(PID.TID 0000.0001) %MON fCori_max                    =   1.4535016908525E-04
(PID.TID 0000.0001) %MON fCori_min                    =  -1.4535016908525E-04
(PID.TID 0000.0001) %MON fCori_mean                   =   0.0000000000000E+00
(PID.TID 0000.0001) %MON fCori_sd                     =   8.3972192788621E-05
(PID.TID 0000.0001) %MON fCoriG_max                   =   1.4544410433286E-04
(PID.TID 0000.0001) %MON fCoriG_min                   =  -1.4544410433286E-04
(PID.TID 0000.0001) %MON fCoriG_mean                  =   0.0000000000000E+00
(PID.TID 0000.0001) %MON fCoriG_sd                    =   8.3972192788621E-05
(PID.TID 0000.0001) %MON fCoriCos_max                 =   1.4540341538469E-04
(PID.TID 0000.0001) %MON fCoriCos_min                 =   5.2264550201501E-06
(PID.TID 0000.0001) %MON fCoriCos_mean                =   1.1482595466044E-04
(PID.TID 0000.0001) %MON fCoriCos_sd                  =   3.0292878037194E-05
(PID.TID 0000.0001) INI_CG2D: CG2D normalisation factor =  9.9119603843467478E-06
(PID.TID 0000.0001) INI_CG2D: cg2dTolerance = 1.123056412257121E-10 (Area=5.0986421043E+14)
(PID.TID 0000.0001) 
(PID.TID 0000.0001) // =======================================================
(PID.TID 0000.0001) // Model configuration
(PID.TID 0000.0001) // =======================================================
(PID.TID 0000.0001) //
(PID.TID 0000.0001) // "Physical" paramters ( PARM01 in namelist )
(PID.TID 0000.0001) //
(PID.TID 0000.0001) buoyancyRelation = /* Type of relation to get Buoyancy */
(PID.TID 0000.0001)               'ATMOSPHERIC'
(PID.TID 0000.0001)     ;
(PID.TID 0000.0001) fluidIsAir   =  /* fluid major constituent is Air */
(PID.TID 0000.0001)                   T
(PID.TID 0000.0001)     ;
(PID.TID 0000.0001) fluidIsWater =  /* fluid major constituent is Water */
(PID.TID 0000.0001)                   F
(PID.TID 0000.0001)     ;
(PID.TID 0000.0001) usingPCoords =  /* use p (or p*) vertical coordinate */
(PID.TID 0000.0001)                   T
(PID.TID 0000.0001)     ;
(PID.TID 0000.0001) usingZCoords =  /* use z (or z*) vertical coordinate */
(PID.TID 0000.0001)                   F
(PID.TID 0000.0001)     ;
(PID.TID 0000.0001) tRef =   /* Reference temperature profile ( oC or K ) */
[...]
(PID.TID 0000.0001) %MON vort_a_mean                  =  -3.7330803093898E-08
(PID.TID 0000.0001) %MON vort_a_sd                    =   8.3629853984027E-05
(PID.TID 0000.0001) %MON vort_p_mean                  =  -3.8328438017672E-08
(PID.TID 0000.0001) %MON vort_p_sd                    =   9.1427046468577E-05
(PID.TID 0000.0001) %MON surfExpan_theta_mean         =   1.4692478758230E-02
(PID.TID 0000.0001) %MON surfExpan_salt_mean          =   0.0000000000000E+00
(PID.TID 0000.0001) %MON surfExpan_Heat_mean          =  -1.9869041850383E+00
(PID.TID 0000.0001) %MON En_Budget_T2PE_mean          =   2.8839114350031E+00
(PID.TID 0000.0001) // =======================================================
(PID.TID 0000.0001) // End MONITOR dynamic field statistics
(PID.TID 0000.0001) // =======================================================
  Writing datetime file: NYMD =     20040301  NHMS =       123730
(PID.TID 0000.0001) %CHECKPOINT         5 ckptA
(PID.TID 0000.0001)   Seconds in section "ALL                    [THE_MODEL_MAIN]":
(PID.TID 0000.0001)           User time:   7.7100000000000000
(PID.TID 0000.0001)         System time:  0.14999999999999999
(PID.TID 0000.0001)     Wall clock time:   7.8981909751892090
(PID.TID 0000.0001)          No. starts:           1
(PID.TID 0000.0001)           No. stops:           1
(PID.TID 0000.0001)   Seconds in section "INITIALISE_FIXED       [THE_MODEL_MAIN]":
(PID.TID 0000.0001)           User time:  0.17999999999999999
(PID.TID 0000.0001)         System time:  2.00000000000000004E-002
(PID.TID 0000.0001)     Wall clock time:  0.21145415306091309
(PID.TID 0000.0001)          No. starts:           1
(PID.TID 0000.0001)           No. stops:           1
(PID.TID 0000.0001)   Seconds in section "THE_MAIN_LOOP          [THE_MODEL_MAIN]":
(PID.TID 0000.0001)           User time:   7.5300000000000002
(PID.TID 0000.0001)         System time:  0.13000000000000000
(PID.TID 0000.0001)     Wall clock time:   7.6866950988769531
(PID.TID 0000.0001)          No. starts:           1
(PID.TID 0000.0001)           No. stops:           1
(PID.TID 0000.0001)   Seconds in section "INITIALISE_VARIA    [THE_MAIN_LOOP]":
(PID.TID 0000.0001)           User time:  0.52000000000000002
(PID.TID 0000.0001)         System time:  5.99999999999999978E-002
(PID.TID 0000.0001)     Wall clock time:  0.59142303466796875
(PID.TID 0000.0001)          No. starts:           1
(PID.TID 0000.0001)           No. stops:           1
(PID.TID 0000.0001)   Seconds in section "GRIDALT_UPDATE  [INITIALISE_VARIA]":
(PID.TID 0000.0001)           User time:  1.00000000000000089E-002
(PID.TID 0000.0001)         System time:   0.0000000000000000
(PID.TID 0000.0001)     Wall clock time:  1.18410587310791016E-002
(PID.TID 0000.0001)          No. starts:           1
(PID.TID 0000.0001)           No. stops:           1
(PID.TID 0000.0001)   Seconds in section "MAIN LOOP           [THE_MAIN_LOOP]":
(PID.TID 0000.0001)           User time:   7.0099999999999998
(PID.TID 0000.0001)         System time:  6.99999999999999928E-002
(PID.TID 0000.0001)     Wall clock time:   7.0952401161193848
(PID.TID 0000.0001)          No. starts:           1
(PID.TID 0000.0001)           No. stops:           1
(PID.TID 0000.0001)   Seconds in section "MAIN_DO_LOOP        [THE_MAIN_LOOP]":
(PID.TID 0000.0001)           User time:   7.0099999999999989
(PID.TID 0000.0001)         System time:  6.99999999999999789E-002
(PID.TID 0000.0001)     Wall clock time:   7.0951852798461914
(PID.TID 0000.0001)          No. starts:           5
(PID.TID 0000.0001)           No. stops:           5
(PID.TID 0000.0001)   Seconds in section "FORWARD_STEP        [MAIN_DO_LOOP]":
(PID.TID 0000.0001)           User time:   7.0099999999999989
(PID.TID 0000.0001)         System time:  6.99999999999999789E-002
(PID.TID 0000.0001)     Wall clock time:   7.0950860977172852
(PID.TID 0000.0001)          No. starts:           5
(PID.TID 0000.0001)           No. stops:           5
(PID.TID 0000.0001)   Seconds in section "DO_STATEVARS_DIAGS  [FORWARD_STEP]":
(PID.TID 0000.0001)           User time:   0.0000000000000000
(PID.TID 0000.0001)         System time:   0.0000000000000000
(PID.TID 0000.0001)     Wall clock time:  3.35860252380371094E-003
(PID.TID 0000.0001)          No. starts:          15
(PID.TID 0000.0001)           No. stops:          15
(PID.TID 0000.0001)   Seconds in section "LOAD_FIELDS_DRIVER  [FORWARD_STEP]":
(PID.TID 0000.0001)           User time:   0.0000000000000000
(PID.TID 0000.0001)         System time:   0.0000000000000000
(PID.TID 0000.0001)     Wall clock time:  1.40666961669921875E-004
(PID.TID 0000.0001)          No. starts:           5
(PID.TID 0000.0001)           No. stops:           5
(PID.TID 0000.0001)   Seconds in section "EXTERNAL_FLDS_LOAD [LOAD_FLDS_DRIVER]":
(PID.TID 0000.0001)           User time:   0.0000000000000000
(PID.TID 0000.0001)         System time:   0.0000000000000000
(PID.TID 0000.0001)     Wall clock time:  4.91142272949218750E-005
(PID.TID 0000.0001)          No. starts:           5
(PID.TID 0000.0001)           No. stops:           5
(PID.TID 0000.0001)   Seconds in section "DO_ATMOSPHERIC_PHYS [FORWARD_STEP]":
(PID.TID 0000.0001)           User time:   1.2100000000000000
(PID.TID 0000.0001)         System time:  9.99999999999999500E-003
(PID.TID 0000.0001)     Wall clock time:   1.2084126472473145
(PID.TID 0000.0001)          No. starts:           5
(PID.TID 0000.0001)           No. stops:           5
(PID.TID 0000.0001)   Seconds in section "FIZHI          [DO_ATMOSPHERIC_PHYS]":
(PID.TID 0000.0001)           User time:   1.2100000000000000
(PID.TID 0000.0001)         System time:  9.99999999999999500E-003
(PID.TID 0000.0001)     Wall clock time:   1.2083086967468262
(PID.TID 0000.0001)          No. starts:           5
(PID.TID 0000.0001)           No. stops:           5
(PID.TID 0000.0001)   Seconds in section "DO_FIZHI          [FIZHI_WRAPPER]":
(PID.TID 0000.0001)           User time:  0.27000000000000135
(PID.TID 0000.0001)         System time:   0.0000000000000000
(PID.TID 0000.0001)     Wall clock time:  0.28051114082336426
(PID.TID 0000.0001)          No. starts:           5
(PID.TID 0000.0001)           No. stops:           5
(PID.TID 0000.0001)   Seconds in section "PHYS2DYN          [FIZHI_WRAPPER]":
(PID.TID 0000.0001)           User time:  0.29999999999999893
(PID.TID 0000.0001)         System time:   0.0000000000000000
(PID.TID 0000.0001)     Wall clock time:  0.28829121589660645
(PID.TID 0000.0001)          No. starts:           5
(PID.TID 0000.0001)           No. stops:           5
(PID.TID 0000.0001)   Seconds in section "ATOC              [FIZHI_WRAPPER]":
(PID.TID 0000.0001)           User time:  9.00000000000007461E-002
(PID.TID 0000.0001)         System time:   0.0000000000000000
(PID.TID 0000.0001)     Wall clock time:  9.61906909942626953E-002
(PID.TID 0000.0001)          No. starts:           5
(PID.TID 0000.0001)           No. stops:           5
(PID.TID 0000.0001)   Seconds in section "EXCHANGES         [FIZHI_WRAPPER]":
(PID.TID 0000.0001)           User time:  4.00000000000000355E-002
(PID.TID 0000.0001)         System time:   0.0000000000000000
(PID.TID 0000.0001)     Wall clock time:  2.92921066284179688E-002
(PID.TID 0000.0001)          No. starts:           5
(PID.TID 0000.0001)           No. stops:           5
(PID.TID 0000.0001)   Seconds in section "DO_OCEANIC_PHYS     [FORWARD_STEP]":
(PID.TID 0000.0001)           User time:   0.0000000000000000
(PID.TID 0000.0001)         System time:   0.0000000000000000
(PID.TID 0000.0001)     Wall clock time:  5.98192214965820313E-004
(PID.TID 0000.0001)          No. starts:           5
(PID.TID 0000.0001)           No. stops:           5
(PID.TID 0000.0001)   Seconds in section "DYNAMICS            [FORWARD_STEP]":
(PID.TID 0000.0001)           User time:   1.1500000000000012
(PID.TID 0000.0001)         System time:   0.0000000000000000
(PID.TID 0000.0001)     Wall clock time:   1.1327419281005859
(PID.TID 0000.0001)          No. starts:           5
(PID.TID 0000.0001)           No. stops:           5
(PID.TID 0000.0001)   Seconds in section "UPDATE_R_STAR       [FORWARD_STEP]":
(PID.TID 0000.0001)           User time:  4.99999999999998224E-002
(PID.TID 0000.0001)         System time:   0.0000000000000000
(PID.TID 0000.0001)     Wall clock time:  7.80413150787353516E-002
(PID.TID 0000.0001)          No. starts:           5
(PID.TID 0000.0001)           No. stops:           5
(PID.TID 0000.0001)   Seconds in section "UPDATE_CG2D         [FORWARD_STEP]":
(PID.TID 0000.0001)           User time:  4.99999999999998224E-002
(PID.TID 0000.0001)         System time:   0.0000000000000000
(PID.TID 0000.0001)     Wall clock time:  4.18648719787597656E-002
(PID.TID 0000.0001)          No. starts:           5
(PID.TID 0000.0001)           No. stops:           5
(PID.TID 0000.0001)   Seconds in section "SOLVE_FOR_PRESSURE  [FORWARD_STEP]":
(PID.TID 0000.0001)           User time:  0.25000000000000089
(PID.TID 0000.0001)         System time:   0.0000000000000000
(PID.TID 0000.0001)     Wall clock time:  0.25427579879760742
(PID.TID 0000.0001)          No. starts:           5
(PID.TID 0000.0001)           No. stops:           5
(PID.TID 0000.0001)   Seconds in section "MOM_CORRECTION_STEP [FORWARD_STEP]":
(PID.TID 0000.0001)           User time:  0.48000000000000043
(PID.TID 0000.0001)         System time:   0.0000000000000000
(PID.TID 0000.0001)     Wall clock time:  0.47616791725158691
(PID.TID 0000.0001)          No. starts:           5
(PID.TID 0000.0001)           No. stops:           5
(PID.TID 0000.0001)   Seconds in section "SHAP_FILT_UV       [MOM_CORR_STEP]":
(PID.TID 0000.0001)           User time:  0.43000000000000060
(PID.TID 0000.0001)         System time:   0.0000000000000000
(PID.TID 0000.0001)     Wall clock time:  0.43905329704284668
(PID.TID 0000.0001)          No. starts:           5
(PID.TID 0000.0001)           No. stops:           5
(PID.TID 0000.0001)   Seconds in section "INTEGR_CONTINUITY   [FORWARD_STEP]":
(PID.TID 0000.0001)           User time:  0.11999999999999922
(PID.TID 0000.0001)         System time:   0.0000000000000000
(PID.TID 0000.0001)     Wall clock time:  0.11747002601623535
(PID.TID 0000.0001)          No. starts:           5
(PID.TID 0000.0001)           No. stops:           5
(PID.TID 0000.0001)   Seconds in section "CALC_R_STAR         [FORWARD_STEP]":
(PID.TID 0000.0001)           User time:  1.99999999999995737E-002
(PID.TID 0000.0001)         System time:   0.0000000000000000
(PID.TID 0000.0001)     Wall clock time:  2.67181396484375000E-002
(PID.TID 0000.0001)          No. starts:           5
(PID.TID 0000.0001)           No. stops:           5
(PID.TID 0000.0001)   Seconds in section "BLOCKING_EXCHANGES  [FORWARD_STEP]":
(PID.TID 0000.0001)           User time:  2.99999999999993605E-002
(PID.TID 0000.0001)         System time:   0.0000000000000000
(PID.TID 0000.0001)     Wall clock time:  3.72693538665771484E-002
(PID.TID 0000.0001)          No. starts:          10
(PID.TID 0000.0001)           No. stops:          10
(PID.TID 0000.0001)   Seconds in section "THERMODYNAMICS      [FORWARD_STEP]":
(PID.TID 0000.0001)           User time:  0.84999999999999964
(PID.TID 0000.0001)         System time:   0.0000000000000000
(PID.TID 0000.0001)     Wall clock time:  0.85149359703063965
(PID.TID 0000.0001)          No. starts:           5
(PID.TID 0000.0001)           No. stops:           5
(PID.TID 0000.0001)   Seconds in section "TRC_CORRECTION_STEP [FORWARD_STEP]":
(PID.TID 0000.0001)           User time:  0.48000000000000043
(PID.TID 0000.0001)         System time:   0.0000000000000000
(PID.TID 0000.0001)     Wall clock time:  0.46417951583862305
(PID.TID 0000.0001)          No. starts:           5
(PID.TID 0000.0001)           No. stops:           5
(PID.TID 0000.0001)   Seconds in section "SHAP_FILT_TS       [TRC_CORR_STEP]":
(PID.TID 0000.0001)           User time:  0.45000000000000018
(PID.TID 0000.0001)         System time:   0.0000000000000000
(PID.TID 0000.0001)     Wall clock time:  0.44665813446044922
(PID.TID 0000.0001)          No. starts:           5
(PID.TID 0000.0001)           No. stops:           5
(PID.TID 0000.0001)   Seconds in section "FIZHI               [FORWARD_STEP]":
(PID.TID 0000.0001)           User time:   1.1400000000000006
(PID.TID 0000.0001)         System time:   0.0000000000000000
(PID.TID 0000.0001)     Wall clock time:   1.1538784503936768
(PID.TID 0000.0001)          No. starts:           5
(PID.TID 0000.0001)           No. stops:           5
(PID.TID 0000.0001)   Seconds in section "PHYS2DYN          [STEP_FIZHI_CORR]":
(PID.TID 0000.0001)           User time:  0.24999999999999911
(PID.TID 0000.0001)         System time:   0.0000000000000000
(PID.TID 0000.0001)     Wall clock time:  0.25948309898376465
(PID.TID 0000.0001)          No. starts:           5
(PID.TID 0000.0001)           No. stops:           5
(PID.TID 0000.0001)   Seconds in section "ATOC              [STEP_FIZHI_CORR]":
(PID.TID 0000.0001)           User time:  0.10000000000000053
(PID.TID 0000.0001)         System time:   0.0000000000000000
(PID.TID 0000.0001)     Wall clock time:  9.13939476013183594E-002
(PID.TID 0000.0001)          No. starts:           5
(PID.TID 0000.0001)           No. stops:           5
(PID.TID 0000.0001)   Seconds in section "CTOA              [STEP_FIZHI_CORR]":
(PID.TID 0000.0001)           User time:  5.99999999999996092E-002
(PID.TID 0000.0001)         System time:   0.0000000000000000
(PID.TID 0000.0001)     Wall clock time:  8.06951522827148438E-002
(PID.TID 0000.0001)          No. starts:           5
(PID.TID 0000.0001)           No. stops:           5
(PID.TID 0000.0001)   Seconds in section "DYN2PHYS          [STEP_FIZHI_CORR]":
(PID.TID 0000.0001)           User time:  0.43999999999999950
(PID.TID 0000.0001)         System time:   0.0000000000000000
(PID.TID 0000.0001)     Wall clock time:  0.43915677070617676
(PID.TID 0000.0001)          No. starts:           5
(PID.TID 0000.0001)           No. stops:           5
(PID.TID 0000.0001)   Seconds in section "MONITOR             [FORWARD_STEP]":
(PID.TID 0000.0001)           User time:  0.70000000000000018
(PID.TID 0000.0001)         System time:   0.0000000000000000
(PID.TID 0000.0001)     Wall clock time:  0.69870066642761230
(PID.TID 0000.0001)          No. starts:           5
(PID.TID 0000.0001)           No. stops:           5
(PID.TID 0000.0001)   Seconds in section "DO_THE_MODEL_IO     [FORWARD_STEP]":
(PID.TID 0000.0001)           User time:  8.00000000000000711E-002
(PID.TID 0000.0001)         System time:  1.00000000000000089E-002
(PID.TID 0000.0001)     Wall clock time:  9.00239944458007813E-002
(PID.TID 0000.0001)          No. starts:           5
(PID.TID 0000.0001)           No. stops:           5
(PID.TID 0000.0001)   Seconds in section "DO_WRITE_PICKUP     [FORWARD_STEP]":
(PID.TID 0000.0001)           User time:  0.34999999999999964
(PID.TID 0000.0001)         System time:  4.99999999999999889E-002
(PID.TID 0000.0001)     Wall clock time:  0.40551304817199707
(PID.TID 0000.0001)          No. starts:           5
(PID.TID 0000.0001)           No. stops:           5
(PID.TID 0000.0001) // ======================================================
(PID.TID 0000.0001) // Tile <-> Tile communication statistics
(PID.TID 0000.0001) // ======================================================
(PID.TID 0000.0001) // o Tile number: 000001
(PID.TID 0000.0001) //         No. X exchanges =              0
(PID.TID 0000.0001) //            Max. X spins =              0
(PID.TID 0000.0001) //            Min. X spins =     1000000000
(PID.TID 0000.0001) //          Total. X spins =              0
(PID.TID 0000.0001) //            Avg. X spins =       0.00E+00
(PID.TID 0000.0001) //         No. Y exchanges =              0
(PID.TID 0000.0001) //            Max. Y spins =              0
(PID.TID 0000.0001) //            Min. Y spins =     1000000000
(PID.TID 0000.0001) //          Total. Y spins =              0
(PID.TID 0000.0001) //            Avg. Y spins =       0.00E+00
(PID.TID 0000.0001) // o Tile number: 000002
(PID.TID 0000.0001) //         No. X exchanges =              0
(PID.TID 0000.0001) //            Max. X spins =              0
(PID.TID 0000.0001) //            Min. X spins =     1000000000
(PID.TID 0000.0001) //          Total. X spins =              0
(PID.TID 0000.0001) //            Avg. X spins =       0.00E+00
(PID.TID 0000.0001) //         No. Y exchanges =              0
(PID.TID 0000.0001) //            Max. Y spins =              0
(PID.TID 0000.0001) //            Min. Y spins =     1000000000
(PID.TID 0000.0001) //          Total. Y spins =              0
(PID.TID 0000.0001) //            Avg. Y spins =       0.00E+00
(PID.TID 0000.0001) // o Tile number: 000003
(PID.TID 0000.0001) //         No. X exchanges =              0
(PID.TID 0000.0001) //            Max. X spins =              0
(PID.TID 0000.0001) //            Min. X spins =     1000000000
(PID.TID 0000.0001) //          Total. X spins =              0
(PID.TID 0000.0001) //            Avg. X spins =       0.00E+00
(PID.TID 0000.0001) //         No. Y exchanges =              0
(PID.TID 0000.0001) //            Max. Y spins =              0
(PID.TID 0000.0001) //            Min. Y spins =     1000000000
(PID.TID 0000.0001) //          Total. Y spins =              0
(PID.TID 0000.0001) //            Avg. Y spins =       0.00E+00
(PID.TID 0000.0001) // o Tile number: 000004
(PID.TID 0000.0001) //         No. X exchanges =              0
(PID.TID 0000.0001) //            Max. X spins =              0
(PID.TID 0000.0001) //            Min. X spins =     1000000000
(PID.TID 0000.0001) //          Total. X spins =              0
(PID.TID 0000.0001) //            Avg. X spins =       0.00E+00
(PID.TID 0000.0001) //         No. Y exchanges =              0
(PID.TID 0000.0001) //            Max. Y spins =              0
(PID.TID 0000.0001) //            Min. Y spins =     1000000000
(PID.TID 0000.0001) //          Total. Y spins =              0
(PID.TID 0000.0001) //            Avg. Y spins =       0.00E+00
(PID.TID 0000.0001) // o Tile number: 000005
(PID.TID 0000.0001) //         No. X exchanges =              0
(PID.TID 0000.0001) //            Max. X spins =              0
(PID.TID 0000.0001) //            Min. X spins =     1000000000
(PID.TID 0000.0001) //          Total. X spins =              0
(PID.TID 0000.0001) //            Avg. X spins =       0.00E+00
(PID.TID 0000.0001) //         No. Y exchanges =              0
(PID.TID 0000.0001) //            Max. Y spins =              0
(PID.TID 0000.0001) //            Min. Y spins =     1000000000
(PID.TID 0000.0001) //          Total. Y spins =              0
(PID.TID 0000.0001) //            Avg. Y spins =       0.00E+00
(PID.TID 0000.0001) // o Tile number: 000006
(PID.TID 0000.0001) //         No. X exchanges =              0
(PID.TID 0000.0001) //            Max. X spins =              0
(PID.TID 0000.0001) //            Min. X spins =     1000000000
(PID.TID 0000.0001) //          Total. X spins =              0
(PID.TID 0000.0001) //            Avg. X spins =       0.00E+00
(PID.TID 0000.0001) //         No. Y exchanges =              0
(PID.TID 0000.0001) //            Max. Y spins =              0
(PID.TID 0000.0001) //            Min. Y spins =     1000000000
(PID.TID 0000.0001) //          Total. Y spins =              0
(PID.TID 0000.0001) //            Avg. Y spins =       0.00E+00
(PID.TID 0000.0001) // o Thread number: 000001
(PID.TID 0000.0001) //            No. barriers =           2688
(PID.TID 0000.0001) //      Max. barrier spins =              1
(PID.TID 0000.0001) //      Min. barrier spins =              1
(PID.TID 0000.0001) //     Total barrier spins =           2688
(PID.TID 0000.0001) //      Avg. barrier spins =       1.00E+00
PROGRAM MAIN: Execution ended Normally
