(PID.TID 0000.0001) 
(PID.TID 0000.0001) // ======================================================
(PID.TID 0000.0001) //                      MITgcm UV
(PID.TID 0000.0001) //                      =========
(PID.TID 0000.0001) // ======================================================
(PID.TID 0000.0001) // execution environment starting up...
(PID.TID 0000.0001) 
(PID.TID 0000.0001) // MITgcmUV version:  checkpoint57i_post
(PID.TID 0000.0001) // Build user:        jmc
(PID.TID 0000.0001) // Build host:        faulks
(PID.TID 0000.0001) // Build date:        Sun Jun 19 17:08:09 EDT 2005
(PID.TID 0000.0001) 
(PID.TID 0000.0001) // =======================================================
(PID.TID 0000.0001) // Execution Environment parameter file "eedata"
(PID.TID 0000.0001) // =======================================================
(PID.TID 0000.0001) ># Example "eedata" file
(PID.TID 0000.0001) ># Lines beginning "#" are comments
(PID.TID 0000.0001) ># nTx - No. threads per process in X
(PID.TID 0000.0001) ># nTy - No. threads per process in Y
(PID.TID 0000.0001) > &EEPARMS
(PID.TID 0000.0001) > useCubedSphereExchange=.TRUE.,
(PID.TID 0000.0001) ># Activate one line below to support 2, 3 or 6 way multi-threading
(PID.TID 0000.0001) >#nTx=2,
(PID.TID 0000.0001) >#nTx=3,
(PID.TID 0000.0001) >#nTx=6,
(PID.TID 0000.0001) > &
(PID.TID 0000.0001) ># Note: Some systems use & as the
(PID.TID 0000.0001) ># namelist terminator. Other systems
(PID.TID 0000.0001) ># use a / character (as shown here).
(PID.TID 0000.0001) 
(PID.TID 0000.0001) // =======================================================
(PID.TID 0000.0001) // Computational Grid Specification ( see files "SIZE.h" )
(PID.TID 0000.0001) //                                  ( and "eedata"       )
(PID.TID 0000.0001) // =======================================================
(PID.TID 0000.0001)      nPx =    1 ; /* No. processes in X */
(PID.TID 0000.0001)      nPy =    1 ; /* No. processes in Y */
(PID.TID 0000.0001)      nSx =    6 ; /* No. tiles in X per process */
(PID.TID 0000.0001)      nSy =    1 ; /* No. tiles in Y per process */
(PID.TID 0000.0001)      sNx =   32 ; /* Tile size in X */
(PID.TID 0000.0001)      sNy =   32 ; /* Tile size in Y */
(PID.TID 0000.0001)      OLx =    2 ; /* Tile overlap distance in X */
(PID.TID 0000.0001)      OLy =    2 ; /* Tile overlap distance in Y */
(PID.TID 0000.0001)      nTx =    1 ; /* No. threads in X per process */
(PID.TID 0000.0001)      nTy =    1 ; /* No. threads in Y per process */
(PID.TID 0000.0001)       Nr =   10 ; /* No. levels in the vertical   */
(PID.TID 0000.0001)       nX =  192 ; /* Total domain size in X ( = nPx*nSx*sNx ) */
(PID.TID 0000.0001)       nY =   32 ; /* Total domain size in Y ( = nPy*nSy*sNy ) */
(PID.TID 0000.0001)   nTiles =    6 ; /* Total no. tiles per process ( = nSx*nSy ) */
(PID.TID 0000.0001)   nProcs =    1 ; /* Total no. processes ( = nPx*nPy ) */
(PID.TID 0000.0001) nThreads =    1 ; /* Total no. threads per process ( = nTx*nTy ) */
(PID.TID 0000.0001) usingMPI =    F ; /* Flag used to control whether MPI is in use */
(PID.TID 0000.0001)                   /*  note: To execute a program with MPI calls */
(PID.TID 0000.0001)                   /*  it must be launched appropriately e.g     */
(PID.TID 0000.0001)                   /*  "mpirun -np 64 ......"                    */
(PID.TID 0000.0001) useCoupler=   F ; /* Flag used to control communications with */
(PID.TID 0000.0001)                   /*  other model components, through a coupler */
(PID.TID 0000.0001) 
(PID.TID 0000.0001) // ======================================================
(PID.TID 0000.0001) // Mapping of tiles to threads
(PID.TID 0000.0001) // ======================================================
(PID.TID 0000.0001) // -o- Thread   1, tiles (   1:   6,   1:   1)
(PID.TID 0000.0001) 
(PID.TID 0000.0001) // ======================================================
(PID.TID 0000.0001) // Tile <-> Tile connectvity table
(PID.TID 0000.0001) // ======================================================
(PID.TID 0000.0001) // Tile number: 000001 (process no. = 000001)
(PID.TID 0000.0001) //        WEST: Tile = 000006, Process = 000001, Comm = put
(PID.TID 0000.0001) //                bi = 000006, bj = 000001
(PID.TID 0000.0001) //        EAST: Tile = 000002, Process = 000001, Comm = put
(PID.TID 0000.0001) //                bi = 000002, bj = 000001
(PID.TID 0000.0001) //       SOUTH: Tile = 000001, Process = 000001, Comm = put
(PID.TID 0000.0001) //                bi = 000001, bj = 000001
(PID.TID 0000.0001) //       NORTH: Tile = 000001, Process = 000001, Comm = put
(PID.TID 0000.0001) //                bi = 000001, bj = 000001
(PID.TID 0000.0001) // Tile number: 000002 (process no. = 000001)
(PID.TID 0000.0001) //        WEST: Tile = 000001, Process = 000001, Comm = put
(PID.TID 0000.0001) //                bi = 000001, bj = 000001
(PID.TID 0000.0001) //        EAST: Tile = 000003, Process = 000001, Comm = put
(PID.TID 0000.0001) //                bi = 000003, bj = 000001
(PID.TID 0000.0001) //       SOUTH: Tile = 000002, Process = 000001, Comm = put
(PID.TID 0000.0001) //                bi = 000002, bj = 000001
(PID.TID 0000.0001) //       NORTH: Tile = 000002, Process = 000001, Comm = put
(PID.TID 0000.0001) //                bi = 000002, bj = 000001
(PID.TID 0000.0001) // Tile number: 000003 (process no. = 000001)
(PID.TID 0000.0001) //        WEST: Tile = 000002, Process = 000001, Comm = put
(PID.TID 0000.0001) //                bi = 000002, bj = 000001
(PID.TID 0000.0001) //        EAST: Tile = 000004, Process = 000001, Comm = put
(PID.TID 0000.0001) //                bi = 000004, bj = 000001
(PID.TID 0000.0001) //       SOUTH: Tile = 000003, Process = 000001, Comm = put
(PID.TID 0000.0001) //                bi = 000003, bj = 000001
(PID.TID 0000.0001) //       NORTH: Tile = 000003, Process = 000001, Comm = put
(PID.TID 0000.0001) //                bi = 000003, bj = 000001
(PID.TID 0000.0001) // Tile number: 000004 (process no. = 000001)
(PID.TID 0000.0001) //        WEST: Tile = 000003, Process = 000001, Comm = put
(PID.TID 0000.0001) //                bi = 000003, bj = 000001
(PID.TID 0000.0001) //        EAST: Tile = 000005, Process = 000001, Comm = put
(PID.TID 0000.0001) //                bi = 000005, bj = 000001
(PID.TID 0000.0001) //       SOUTH: Tile = 000004, Process = 000001, Comm = put
(PID.TID 0000.0001) //                bi = 000004, bj = 000001
(PID.TID 0000.0001) //       NORTH: Tile = 000004, Process = 000001, Comm = put
(PID.TID 0000.0001) //                bi = 000004, bj = 000001
(PID.TID 0000.0001) // Tile number: 000005 (process no. = 000001)
(PID.TID 0000.0001) //        WEST: Tile = 000004, Process = 000001, Comm = put
(PID.TID 0000.0001) //                bi = 000004, bj = 000001
(PID.TID 0000.0001) //        EAST: Tile = 000006, Process = 000001, Comm = put
(PID.TID 0000.0001) //                bi = 000006, bj = 000001
(PID.TID 0000.0001) //       SOUTH: Tile = 000005, Process = 000001, Comm = put
(PID.TID 0000.0001) //                bi = 000005, bj = 000001
(PID.TID 0000.0001) //       NORTH: Tile = 000005, Process = 000001, Comm = put
(PID.TID 0000.0001) //                bi = 000005, bj = 000001
(PID.TID 0000.0001) // Tile number: 000006 (process no. = 000001)
(PID.TID 0000.0001) //        WEST: Tile = 000005, Process = 000001, Comm = put
(PID.TID 0000.0001) //                bi = 000005, bj = 000001
(PID.TID 0000.0001) //        EAST: Tile = 000001, Process = 000001, Comm = put
(PID.TID 0000.0001) //                bi = 000001, bj = 000001
(PID.TID 0000.0001) //       SOUTH: Tile = 000006, Process = 000001, Comm = put
(PID.TID 0000.0001) //                bi = 000006, bj = 000001
(PID.TID 0000.0001) //       NORTH: Tile = 000006, Process = 000001, Comm = put
(PID.TID 0000.0001) //                bi = 000006, bj = 000001
(PID.TID 0000.0001) 
(PID.TID 0000.0001) ===== W2 TILE TOPLOGY =====
(PID.TID 0000.0001)  TILE:    1
(PID.TID 0000.0001)       NEIGHBOUR    1 = TILE    3 Comm = PUT ( PROC =    1)
(PID.TID 0000.0001)       NEIGHBOUR    2 = TILE    6 Comm = PUT ( PROC =    1)
(PID.TID 0000.0001)       NEIGHBOUR    3 = TILE    2 Comm = PUT ( PROC =    1)
(PID.TID 0000.0001)       NEIGHBOUR    4 = TILE    5 Comm = PUT ( PROC =    1)
(PID.TID 0000.0001)  TILE:    2
(PID.TID 0000.0001)       NEIGHBOUR    1 = TILE    3 Comm = PUT ( PROC =    1)
(PID.TID 0000.0001)       NEIGHBOUR    2 = TILE    6 Comm = PUT ( PROC =    1)
(PID.TID 0000.0001)       NEIGHBOUR    3 = TILE    4 Comm = PUT ( PROC =    1)
(PID.TID 0000.0001)       NEIGHBOUR    4 = TILE    1 Comm = PUT ( PROC =    1)
(PID.TID 0000.0001)  TILE:    3
(PID.TID 0000.0001)       NEIGHBOUR    1 = TILE    5 Comm = PUT ( PROC =    1)
(PID.TID 0000.0001)       NEIGHBOUR    2 = TILE    2 Comm = PUT ( PROC =    1)
(PID.TID 0000.0001)       NEIGHBOUR    3 = TILE    4 Comm = PUT ( PROC =    1)
(PID.TID 0000.0001)       NEIGHBOUR    4 = TILE    1 Comm = PUT ( PROC =    1)
(PID.TID 0000.0001)  TILE:    4
(PID.TID 0000.0001)       NEIGHBOUR    1 = TILE    5 Comm = PUT ( PROC =    1)
(PID.TID 0000.0001)       NEIGHBOUR    2 = TILE    2 Comm = PUT ( PROC =    1)
(PID.TID 0000.0001)       NEIGHBOUR    3 = TILE    6 Comm = PUT ( PROC =    1)
(PID.TID 0000.0001)       NEIGHBOUR    4 = TILE    3 Comm = PUT ( PROC =    1)
(PID.TID 0000.0001)  TILE:    5
(PID.TID 0000.0001)       NEIGHBOUR    1 = TILE    1 Comm = PUT ( PROC =    1)
(PID.TID 0000.0001)       NEIGHBOUR    2 = TILE    4 Comm = PUT ( PROC =    1)
(PID.TID 0000.0001)       NEIGHBOUR    3 = TILE    6 Comm = PUT ( PROC =    1)
(PID.TID 0000.0001)       NEIGHBOUR    4 = TILE    3 Comm = PUT ( PROC =    1)
(PID.TID 0000.0001)  TILE:    6
(PID.TID 0000.0001)       NEIGHBOUR    1 = TILE    1 Comm = PUT ( PROC =    1)
(PID.TID 0000.0001)       NEIGHBOUR    2 = TILE    4 Comm = PUT ( PROC =    1)
(PID.TID 0000.0001)       NEIGHBOUR    3 = TILE    2 Comm = PUT ( PROC =    1)
(PID.TID 0000.0001)       NEIGHBOUR    4 = TILE    5 Comm = PUT ( PROC =    1)
(PID.TID 0000.0001) Tile    1(proc =   1) sends points i=  34:  -1, j=  31:  32
(PID.TID 0000.0001)                          to points i=  -1:   0, j=  -1:  34 in tile    3(proc =   1)
(PID.TID 0000.0001) Tile    1(proc =   1) sends points i=  -1:  34, j=   1:   2
(PID.TID 0000.0001)                          to points i=  -1:  34, j=  33:  34 in tile    6(proc =   1)
(PID.TID 0000.0001) Tile    1(proc =   1) sends points i=  31:  32, j=  -1:  34
(PID.TID 0000.0001)                          to points i=  -1:   0, j=  -1:  34 in tile    2(proc =   1)
(PID.TID 0000.0001) Tile    1(proc =   1) sends points i=   1:   2, j=  34:  -1
(PID.TID 0000.0001)                          to points i=  -1:  34, j=  33:  34 in tile    5(proc =   1)
(PID.TID 0000.0001) Tile    2(proc =   1) sends points i=  -1:  34, j=  31:  32
(PID.TID 0000.0001)                          to points i=  -1:  34, j=  -1:   0 in tile    3(proc =   1)
(PID.TID 0000.0001) Tile    2(proc =   1) sends points i=  34:  -1, j=   1:   2
(PID.TID 0000.0001)                          to points i=  33:  34, j=  -1:  34 in tile    6(proc =   1)
(PID.TID 0000.0001) Tile    2(proc =   1) sends points i=  31:  32, j=  34:  -1
(PID.TID 0000.0001)                          to points i=  -1:  34, j=  -1:   0 in tile    4(proc =   1)
(PID.TID 0000.0001) Tile    2(proc =   1) sends points i=   1:   2, j=  -1:  34
(PID.TID 0000.0001)                          to points i=  33:  34, j=  -1:  34 in tile    1(proc =   1)
(PID.TID 0000.0001) Tile    3(proc =   1) sends points i=  34:  -1, j=  31:  32
(PID.TID 0000.0001)                          to points i=  -1:   0, j=  -1:  34 in tile    5(proc =   1)
(PID.TID 0000.0001) Tile    3(proc =   1) sends points i=  -1:  34, j=   1:   2
(PID.TID 0000.0001)                          to points i=  -1:  34, j=  33:  34 in tile    2(proc =   1)
(PID.TID 0000.0001) Tile    3(proc =   1) sends points i=  31:  32, j=  -1:  34
(PID.TID 0000.0001)                          to points i=  -1:   0, j=  -1:  34 in tile    4(proc =   1)
(PID.TID 0000.0001) Tile    3(proc =   1) sends points i=   1:   2, j=  34:  -1
(PID.TID 0000.0001)                          to points i=  -1:  34, j=  33:  34 in tile    1(proc =   1)
(PID.TID 0000.0001) Tile    4(proc =   1) sends points i=  -1:  34, j=  31:  32
(PID.TID 0000.0001)                          to points i=  -1:  34, j=  -1:   0 in tile    5(proc =   1)
(PID.TID 0000.0001) Tile    4(proc =   1) sends points i=  34:  -1, j=   1:   2
(PID.TID 0000.0001)                          to points i=  33:  34, j=  -1:  34 in tile    2(proc =   1)
(PID.TID 0000.0001) Tile    4(proc =   1) sends points i=  31:  32, j=  34:  -1
(PID.TID 0000.0001)                          to points i=  -1:  34, j=  -1:   0 in tile    6(proc =   1)
(PID.TID 0000.0001) Tile    4(proc =   1) sends points i=   1:   2, j=  -1:  34
(PID.TID 0000.0001)                          to points i=  33:  34, j=  -1:  34 in tile    3(proc =   1)
(PID.TID 0000.0001) Tile    5(proc =   1) sends points i=  34:  -1, j=  31:  32
(PID.TID 0000.0001)                          to points i=  -1:   0, j=  -1:  34 in tile    1(proc =   1)
(PID.TID 0000.0001) Tile    5(proc =   1) sends points i=  -1:  34, j=   1:   2
(PID.TID 0000.0001)                          to points i=  -1:  34, j=  33:  34 in tile    4(proc =   1)
(PID.TID 0000.0001) Tile    5(proc =   1) sends points i=  31:  32, j=  -1:  34
(PID.TID 0000.0001)                          to points i=  -1:   0, j=  -1:  34 in tile    6(proc =   1)
(PID.TID 0000.0001) Tile    5(proc =   1) sends points i=   1:   2, j=  34:  -1
(PID.TID 0000.0001)                          to points i=  -1:  34, j=  33:  34 in tile    3(proc =   1)
(PID.TID 0000.0001) Tile    6(proc =   1) sends points i=  -1:  34, j=  31:  32
(PID.TID 0000.0001)                          to points i=  -1:  34, j=  -1:   0 in tile    1(proc =   1)
(PID.TID 0000.0001) Tile    6(proc =   1) sends points i=  34:  -1, j=   1:   2
(PID.TID 0000.0001)                          to points i=  33:  34, j=  -1:  34 in tile    4(proc =   1)
(PID.TID 0000.0001) Tile    6(proc =   1) sends points i=  31:  32, j=  34:  -1
(PID.TID 0000.0001)                          to points i=  -1:  34, j=  -1:   0 in tile    2(proc =   1)
(PID.TID 0000.0001) Tile    6(proc =   1) sends points i=   1:   2, j=  -1:  34
(PID.TID 0000.0001)                          to points i=  33:  34, j=  -1:  34 in tile    5(proc =   1)
(PID.TID 0000.0001) Tile    1(proc =   1)recv to points i=  -1:  34, j=  33:  34from tile   3(proc =   1)
(PID.TID 0000.0001) Tile    1(proc =   1)recv to points i=  -1:  34, j=  -1:   0from tile   6(proc =   1)
(PID.TID 0000.0001) Tile    1(proc =   1)recv to points i=  33:  34, j=  -1:  34from tile   2(proc =   1)
(PID.TID 0000.0001) Tile    1(proc =   1)recv to points i=  -1:   0, j=  -1:  34from tile   5(proc =   1)
(PID.TID 0000.0001) Tile    2(proc =   1)recv to points i=  -1:  34, j=  33:  34from tile   3(proc =   1)
(PID.TID 0000.0001) Tile    2(proc =   1)recv to points i=  -1:  34, j=  -1:   0from tile   6(proc =   1)
(PID.TID 0000.0001) Tile    2(proc =   1)recv to points i=  33:  34, j=  -1:  34from tile   4(proc =   1)
(PID.TID 0000.0001) Tile    2(proc =   1)recv to points i=  -1:   0, j=  -1:  34from tile   1(proc =   1)
(PID.TID 0000.0001) Tile    3(proc =   1)recv to points i=  -1:  34, j=  33:  34from tile   5(proc =   1)
(PID.TID 0000.0001) Tile    3(proc =   1)recv to points i=  -1:  34, j=  -1:   0from tile   2(proc =   1)
(PID.TID 0000.0001) Tile    3(proc =   1)recv to points i=  33:  34, j=  -1:  34from tile   4(proc =   1)
(PID.TID 0000.0001) Tile    3(proc =   1)recv to points i=  -1:   0, j=  -1:  34from tile   1(proc =   1)
(PID.TID 0000.0001) Tile    4(proc =   1)recv to points i=  -1:  34, j=  33:  34from tile   5(proc =   1)
(PID.TID 0000.0001) Tile    4(proc =   1)recv to points i=  -1:  34, j=  -1:   0from tile   2(proc =   1)
(PID.TID 0000.0001) Tile    4(proc =   1)recv to points i=  33:  34, j=  -1:  34from tile   6(proc =   1)
(PID.TID 0000.0001) Tile    4(proc =   1)recv to points i=  -1:   0, j=  -1:  34from tile   3(proc =   1)
(PID.TID 0000.0001) Tile    5(proc =   1)recv to points i=  -1:  34, j=  33:  34from tile   1(proc =   1)
(PID.TID 0000.0001) Tile    5(proc =   1)recv to points i=  -1:  34, j=  -1:   0from tile   4(proc =   1)
(PID.TID 0000.0001) Tile    5(proc =   1)recv to points i=  33:  34, j=  -1:  34from tile   6(proc =   1)
(PID.TID 0000.0001) Tile    5(proc =   1)recv to points i=  -1:   0, j=  -1:  34from tile   3(proc =   1)
(PID.TID 0000.0001) Tile    6(proc =   1)recv to points i=  -1:  34, j=  33:  34from tile   1(proc =   1)
(PID.TID 0000.0001) Tile    6(proc =   1)recv to points i=  -1:  34, j=  -1:   0from tile   4(proc =   1)
(PID.TID 0000.0001) Tile    6(proc =   1)recv to points i=  33:  34, j=  -1:  34from tile   2(proc =   1)
(PID.TID 0000.0001) Tile    6(proc =   1)recv to points i=  -1:   0, j=  -1:  34from tile   5(proc =   1)
(PID.TID 0000.0001) // =======================================================
(PID.TID 0000.0001) // Model parameter file "data"
(PID.TID 0000.0001) // =======================================================
(PID.TID 0000.0001) ># ====================
(PID.TID 0000.0001) ># | Model parameters |
(PID.TID 0000.0001) ># ====================
(PID.TID 0000.0001) >#
(PID.TID 0000.0001) ># Continuous equation parameters
(PID.TID 0000.0001) > &PARM01
(PID.TID 0000.0001) >#tRef=285.0629, 285.1911, 285.3227, 285.4578, 285.5967, 285.7396, 285.8867, 286.0382, 286.1945, 286.3558,
(PID.TID 0000.0001) >#     286.5224, 286.6949, 286.8735, 287.0587, 287.2510, 287.4510, 287.6594, 287.8768, 288.1041, 288.3423,
(PID.TID 0000.0001) >#     288.5923, 288.8555, 289.1334, 289.6418, 290.7383, 292.2923, 294.3130, 296.8655, 300.0692, 304.0688,
(PID.TID 0000.0001) >#     309.1004, 315.5373, 324.0034, 336.1247, 352.5569, 373.3613, 401.1561, 441.6358, 511.0338, 699.4714,
(PID.TID 0000.0001) >#tref=285.1266, 285.3898, 285.6677, 285.9619, 286.2745, 286.6079, 286.9652, 287.3500, 287.7669, 288.2218,
(PID.TID 0000.0001) >#     288.7222, 289.2898, 291.4596, 295.5171, 301.9576, 312.1179, 329.3794, 362.2895, 419.2191, 573.8012,
(PID.TID 0000.0001) > tref=285.2565, 285.8126, 286.4384, 287.1539, 287.9892, 288.9925, 293.2411, 306.4335, 343.9003, 470.7094,
(PID.TID 0000.0001) > sRef=10*0.0,
(PID.TID 0000.0001) > viscAr=0.E1,
(PID.TID 0000.0001) > viscAh=0.E6,
(PID.TID 0000.0001) > viscA4=0.E17,
(PID.TID 0000.0001) > no_slip_sides=.FALSE.,
(PID.TID 0000.0001) > no_slip_bottom=.FALSE.,
(PID.TID 0000.0001) > diffKhT=0.E3,
(PID.TID 0000.0001) > diffKrT=0.,
(PID.TID 0000.0001) > diffK4T=0.E17,
(PID.TID 0000.0001) > diffKrS=0.E2,
(PID.TID 0000.0001) > diffKhS=0.E3,
(PID.TID 0000.0001) > diffK4S=0.E17,
(PID.TID 0000.0001) > buoyancyRelation='ATMOSPHERIC',
(PID.TID 0000.0001) > eosType='IDEALGAS',
(PID.TID 0000.0001) >#Integr_GeoPot=2,
(PID.TID 0000.0001) > gravity=9.81,
(PID.TID 0000.0001) > rhonil=1.0,
(PID.TID 0000.0001) > rhoConst=1.0,
(PID.TID 0000.0001) > rigidLid=.FALSE.,
(PID.TID 0000.0001) > implicitFreeSurface=.TRUE.,
(PID.TID 0000.0001) > exactConserv=.TRUE.,
(PID.TID 0000.0001) > uniformLin_PhiSurf=.FALSE.,
(PID.TID 0000.0001) > staggerTimeStep=.TRUE.,
(PID.TID 0000.0001) > nonHydrostatic=.FALSE.,
(PID.TID 0000.0001) > readBinaryPrec=64,
(PID.TID 0000.0001) > writeBinaryPrec=64,
(PID.TID 0000.0001) > hFacMin=0.2,
(PID.TID 0000.0001) > nonlinFreeSurf=4,
(PID.TID 0000.0001) > select_rStar=2,
(PID.TID 0000.0001) > saltAdvScheme=3,
(PID.TID 0000.0001) > vectorInvariantMomentum=.TRUE.,
(PID.TID 0000.0001) > &
(PID.TID 0000.0001) >
(PID.TID 0000.0001) ># Elliptic solver parameters
(PID.TID 0000.0001) > &PARM02
(PID.TID 0000.0001) > cg2dMaxIters=200,
(PID.TID 0000.0001) >#cg2dTargetResidual=1.E-12,
(PID.TID 0000.0001) > cg2dTargetResWunit=1.E-17,
(PID.TID 0000.0001) > &
(PID.TID 0000.0001) >
(PID.TID 0000.0001) ># Time stepping parameters
(PID.TID 0000.0001) > &PARM03
(PID.TID 0000.0001) > niter0=0,
(PID.TID 0000.0001) >#nTimeSteps=691200,
(PID.TID 0000.0001) > nTimeSteps=5,
(PID.TID 0000.0001) >#endTime=864000.0,
(PID.TID 0000.0001) > deltaT=450.0,
(PID.TID 0000.0001) > forcing_In_AB=.FALSE.,
(PID.TID 0000.0001) > abEps=0.1,
(PID.TID 0000.0001) > cAdjFreq=0.,
(PID.TID 0000.0001) > pChkptFreq=2592000.0,
(PID.TID 0000.0001) > chkptFreq=0.0,
(PID.TID 0000.0001) >#dumpFreq=2592000.0,
(PID.TID 0000.0001) > dumpFreq=3600.0,
(PID.TID 0000.0001) > monitorFreq=1.,
(PID.TID 0000.0001) > taveFreq=0.0,
(PID.TID 0000.0001) > tave_lastiter=1.,
(PID.TID 0000.0001) > &
(PID.TID 0000.0001) >
(PID.TID 0000.0001) ># Gridding parameters
(PID.TID 0000.0001) > &PARM04
(PID.TID 0000.0001) > usingCartesianGrid=.FALSE.,
(PID.TID 0000.0001) > usingSphericalPolarGrid=.FALSE.,
(PID.TID 0000.0001) > usingCurvilinearGrid=.TRUE.,
(PID.TID 0000.0001) > delR=10*1.E4,
(PID.TID 0000.0001) > Ro_SeaLevel=1.E5,
(PID.TID 0000.0001) > groundAtK1=.TRUE.,
(PID.TID 0000.0001) > rSphere=6370.E3,
(PID.TID 0000.0001) > &
(PID.TID 0000.0001) >
(PID.TID 0000.0001) ># Input datasets
(PID.TID 0000.0001) > &PARM05
(PID.TID 0000.0001) > topoFile='topo.cs.bin',
(PID.TID 0000.0001) > &
(PID.TID 0000.0001) 
(PID.TID 0000.0001) S/R INI_PARMS ; starts to read PARM01
(PID.TID 0000.0001) S/R INI_PARMS ; read PARM01 : OK
(PID.TID 0000.0001) S/R INI_PARMS ; starts to read PARM02
(PID.TID 0000.0001) S/R INI_PARMS ; read PARM02 : OK
(PID.TID 0000.0001) S/R INI_PARMS ; starts to read PARM03
(PID.TID 0000.0001) S/R INI_PARMS ; read PARM03 : OK
(PID.TID 0000.0001) S/R INI_PARMS ; starts to read PARM04
(PID.TID 0000.0001) S/R INI_PARMS ; read PARM04 : OK
(PID.TID 0000.0001) S/R INI_PARMS ; starts to read PARM05
(PID.TID 0000.0001) S/R INI_PARMS ; read PARM05 : OK
(PID.TID 0000.0001)  PACKAGES_BOOT: opening data.pkg
(PID.TID 0000.0001)  OPEN_COPY_DATA_FILE: opening file data.pkg
(PID.TID 0000.0001) // =======================================================
(PID.TID 0000.0001) // Parameter file "data.pkg"
(PID.TID 0000.0001) // =======================================================
(PID.TID 0000.0001) ># Packages
(PID.TID 0000.0001) > &PACKAGES
(PID.TID 0000.0001) > useFIZHI=.TRUE.,
(PID.TID 0000.0001) > useGRIDALT=.TRUE.,
(PID.TID 0000.0001) > useSHAP_FILT=.TRUE.,
(PID.TID 0000.0001) > useDIAGNOSTICS=.TRUE.,
(PID.TID 0000.0001) >#useMNC=.TRUE.,
(PID.TID 0000.0001) > &
(PID.TID 0000.0001) 
(PID.TID 0000.0001)  PACKAGES_BOOT: finished reading data.pkg
(PID.TID 0000.0001)  SHAP_FILT_READPARMS: opening data.shap
(PID.TID 0000.0001)  OPEN_COPY_DATA_FILE: opening file data.shap
(PID.TID 0000.0001) // =======================================================
(PID.TID 0000.0001) // Parameter file "data.shap"
(PID.TID 0000.0001) // =======================================================
(PID.TID 0000.0001) ># Shapiro Filter parameters
(PID.TID 0000.0001) > &SHAP_PARM01
(PID.TID 0000.0001) > shap_filt_uvStar=.FALSE.,
(PID.TID 0000.0001) > shap_filt_TrStagg=.TRUE.,
(PID.TID 0000.0001) > Shap_funct=2,
(PID.TID 0000.0001) > nShapT=4,
(PID.TID 0000.0001) > nShapUV=4,
(PID.TID 0000.0001) > nShapTrPhys=0,
(PID.TID 0000.0001) > nShapUVPhys=0,
(PID.TID 0000.0001) >#Shap_TrLength=115000.,
(PID.TID 0000.0001) >#Shap_uvLength=110000.,
(PID.TID 0000.0001) > Shap_Trtau=5400.,
(PID.TID 0000.0001) > Shap_uvtau=1800.,
(PID.TID 0000.0001) > &
(PID.TID 0000.0001) 
(PID.TID 0000.0001)  SHAP_FILT_READPARMS: finished reading data.shap
(PID.TID 0000.0001) Shap_funct =   /* select Shapiro filter function */
(PID.TID 0000.0001)                       2
(PID.TID 0000.0001)     ;
(PID.TID 0000.0001) nShapT =   /* power of Shapiro filter for Temperat */
(PID.TID 0000.0001)                       4
(PID.TID 0000.0001)     ;
(PID.TID 0000.0001) nShapS =   /* power of Shapiro filter for Salinity */
(PID.TID 0000.0001)                       4
(PID.TID 0000.0001)     ;
(PID.TID 0000.0001) nShapUV =   /* power of Shapiro filter for momentum */
(PID.TID 0000.0001)                       4
(PID.TID 0000.0001)     ;
(PID.TID 0000.0001) nShapTrPhys =   /* power of physical-space filter (Tracer) */
(PID.TID 0000.0001)                       0
(PID.TID 0000.0001)     ;
(PID.TID 0000.0001) nShapUVPhys =   /* power of physical-space filter (Momentum) */
(PID.TID 0000.0001)                       0
(PID.TID 0000.0001)     ;
(PID.TID 0000.0001) Shap_Trtau =   /* time scale of Shapiro filter (Tracer) */
(PID.TID 0000.0001)                 5.400000000000000E+03
(PID.TID 0000.0001)     ;
(PID.TID 0000.0001) Shap_TrLength =   /* Length scale of Shapiro filter (Tracer) */
(PID.TID 0000.0001)                 0.000000000000000E+00
(PID.TID 0000.0001)     ;
(PID.TID 0000.0001) Shap_uvtau =   /* time scale of Shapiro filter (Momentum) */
(PID.TID 0000.0001)                 1.800000000000000E+03
(PID.TID 0000.0001)     ;
(PID.TID 0000.0001) Shap_uvLength =   /* Length scale of Shapiro filter (Momentum) */
(PID.TID 0000.0001)                 0.000000000000000E+00
(PID.TID 0000.0001)     ;
(PID.TID 0000.0001) Shap_noSlip =  /* No-slip parameter (0=Free-slip ; 1=No-slip)*/
(PID.TID 0000.0001)                 0.000000000000000E+00
(PID.TID 0000.0001)     ;
(PID.TID 0000.0001) Shap_diagFreq =   /* Frequency^-1 for diagnostic output (s)*/
(PID.TID 0000.0001)                 0.000000000000000E+00
(PID.TID 0000.0001)     ;
(PID.TID 0000.0001)  FIZHI_READPARMS: opening data.fizhi
(PID.TID 0000.0001)  OPEN_COPY_DATA_FILE: opening file data.fizhi
(PID.TID 0000.0001) // =======================================================
(PID.TID 0000.0001) // Parameter file "data.fizhi"
(PID.TID 0000.0001) // =======================================================
(PID.TID 0000.0001) ># Fizhi Parameters
(PID.TID 0000.0001) > &fizhi_list
(PID.TID 0000.0001) > nhmsbegin=120000,
(PID.TID 0000.0001) > nymdbegin=20040301,
(PID.TID 0000.0001) > &
(PID.TID 0000.0001) 
   Begin Date  20040301   Begin Time  120000
 Current Date  20040301 Current Time  120000
(PID.TID 0000.0001)  DIAGNOSTICS_READPARMS: opening data.diagnostics
(PID.TID 0000.0001)  OPEN_COPY_DATA_FILE: opening file data.diagnostics
(PID.TID 0000.0001) // =======================================================
(PID.TID 0000.0001) // Parameter file "data.diagnostics"
(PID.TID 0000.0001) // =======================================================
(PID.TID 0000.0001) ># Diagnostic Package Choices
(PID.TID 0000.0001) > &diagnostics_list
(PID.TID 0000.0001) >  frequency(1) = 0.003,
(PID.TID 0000.0001) >   levels(1,1) = 1.,
(PID.TID 0000.0001) >   fields(1,1) = 'ETAN   ',
(PID.TID 0000.0001) >   filename(1) = 'surface',
(PID.TID 0000.0001) >  frequency(2) = 0.003,
(PID.TID 0000.0001) >   levels(1,2) = 1.,2.,3.,4.,5.,6.,7.,8.,9.,10.,11.,12.,13.,14.,15.,16.,17.,18.,19.,20.,
(PID.TID 0000.0001) >   fields(1,2) = 'UDIAG4  ',
(PID.TID 0000.0001) >   filename(2) = 'fizhidt',
(PID.TID 0000.0001) > &end
(PID.TID 0000.0001) >
(PID.TID 0000.0001) ># Parameter for Diagnostics of per level statistics:
(PID.TID 0000.0001) >#-----------------
(PID.TID 0000.0001) ># for each output-stream:
(PID.TID 0000.0001) >#  stat_fname(n) : prefix of the output file name (only 8.c long) for outp.stream n
(PID.TID 0000.0001) >#  stat_freq(n):< 0 : write snap-shot output every |stat_freq| seconds
(PID.TID 0000.0001) >#               > 0 : write time-average output every stat_freq seconds
(PID.TID 0000.0001) >#  stat_phase(n)    : write at time = stat_phase + multiple of |stat_freq|
(PID.TID 0000.0001) >#  stat_region(:,n) : list of "regions" (default: 1 region only=global)
(PID.TID 0000.0001) >#  stat_fields(:,n) : list of diagnostics fields (8.c) (see "available_diagnostics.log"
(PID.TID 0000.0001) >#                 file for the list of all available diag. in this particular config)
(PID.TID 0000.0001) >#-----------------
(PID.TID 0000.0001) > &DIAG_STATIS_PARMS
(PID.TID 0000.0001) >#- an example just to check the agreement with MONITOR output:
(PID.TID 0000.0001) >#stat_fields(1,1)= 'ETAN    ','UVEL    ','VVEL    ','WVEL    ', 'THETA   ',
(PID.TID 0000.0001) >#   stat_fname(1)= 'dynStDiag',
(PID.TID 0000.0001) >#    stat_freq(1)= -864000.,
(PID.TID 0000.0001) >#   stat_phase(1)= 0.,
(PID.TID 0000.0001) > &
(PID.TID 0000.0001) >
(PID.TID 0000.0001) 
(PID.TID 0000.0001) S/R DIAGNOSTICS_READPARMS, read namelist "diagnostics_list": start
(PID.TID 0000.0001) S/R DIAGNOSTICS_READPARMS, read namelist "diagnostics_list": OK
(PID.TID 0000.0001) S/R DIAGNOSTICS_READPARMS, read namelist "DIAG_STATIS_PARMS": start
(PID.TID 0000.0001) S/R DIAGNOSTICS_READPARMS, read namelist "DIAG_STATIS_PARMS": OK
(PID.TID 0000.0001) -----------------------------------------------------
(PID.TID 0000.0001)  DIAGNOSTICS_READPARMS: active diagnostics summary:
(PID.TID 0000.0001) -----------------------------------------------------
(PID.TID 0000.0001) Creating Output Stream: surface
(PID.TID 0000.0001) Frequency :          0.003000 ; Phase:          0.000000
(PID.TID 0000.0001)  Levels:       1.
(PID.TID 0000.0001)  Fields:    ETAN
(PID.TID 0000.0001) Creating Output Stream: fizhidt
(PID.TID 0000.0001) Frequency :          0.003000 ; Phase:          0.000000
(PID.TID 0000.0001)  Levels:       1.   2.   3.   4.   5.   6.   7.   8.   9.  10.  11.  12.  13.  14.  15.  16.  17.  18.  19.  20.
(PID.TID 0000.0001)  Fields:    UDIAG4
(PID.TID 0000.0001) -----------------------------------------------------
(PID.TID 0000.0001)  DIAGNOSTICS_READPARMS: statistics diags. summary:
(PID.TID 0000.0001) -----------------------------------------------------
(PID.TID 0000.0001) 
(PID.TID 0000.0001) tile:   1 ; Read from file tile001.mitgrid
(PID.TID 0000.0001)   => XC YC DXF DYF RA XG YG DXV DYU RAZ DXC DYC RAW RAS DXG DYG
(PID.TID 0000.0001) tile:   2 ; Read from file tile002.mitgrid
(PID.TID 0000.0001)   => XC YC DXF DYF RA XG YG DXV DYU RAZ DXC DYC RAW RAS DXG DYG
(PID.TID 0000.0001) tile:   3 ; Read from file tile003.mitgrid
(PID.TID 0000.0001)   => XC YC DXF DYF RA XG YG DXV DYU RAZ DXC DYC RAW RAS DXG DYG
(PID.TID 0000.0001) tile:   4 ; Read from file tile004.mitgrid
(PID.TID 0000.0001)   => XC YC DXF DYF RA XG YG DXV DYU RAZ DXC DYC RAW RAS DXG DYG
(PID.TID 0000.0001) tile:   5 ; Read from file tile005.mitgrid
(PID.TID 0000.0001)   => XC YC DXF DYF RA XG YG DXV DYU RAZ DXC DYC RAW RAS DXG DYG
(PID.TID 0000.0001) tile:   6 ; Read from file tile006.mitgrid
(PID.TID 0000.0001)   => XC YC DXF DYF RA XG YG DXV DYU RAZ DXC DYC RAW RAS DXG DYG
(PID.TID 0000.0001) %MON XC_max                       =   1.7854351589505E+02
(PID.TID 0000.0001) %MON XC_min                       =  -1.7854351589505E+02
(PID.TID 0000.0001) %MON XC_mean                      =  -4.6999441375798E-15
(PID.TID 0000.0001) %MON XC_sd                        =   1.0355545336287E+02
(PID.TID 0000.0001) %MON XG_max                       =   1.8000000000000E+02
(PID.TID 0000.0001) %MON XG_min                       =  -1.7708797161002E+02
(PID.TID 0000.0001) %MON XG_mean                      =   1.8796250616675E+00
(PID.TID 0000.0001) %MON XG_sd                        =   1.0410625309932E+02
(PID.TID 0000.0001) %MON DXC_max                      =   3.2375185836900E+05
(PID.TID 0000.0001) %MON DXC_min                      =   1.1142031410131E+05
(PID.TID 0000.0001) %MON DXC_mean                     =   2.8605689051214E+05
(PID.TID 0000.0001) %MON DXC_sd                       =   3.4042087138252E+04
(PID.TID 0000.0001) %MON DXF_max                      =   3.2369947500827E+05
(PID.TID 0000.0001) %MON DXF_min                      =   1.2020820513318E+05
(PID.TID 0000.0001) %MON DXF_mean                     =   2.8605437324820E+05
(PID.TID 0000.0001) %MON DXF_sd                       =   3.4050524252539E+04
(PID.TID 0000.0001) %MON DXG_max                      =   3.2375195872773E+05
(PID.TID 0000.0001) %MON DXG_min                      =   1.0098378008791E+05
(PID.TID 0000.0001) %MON DXG_mean                     =   2.8603818508931E+05
(PID.TID 0000.0001) %MON DXG_sd                       =   3.4140406908005E+04
(PID.TID 0000.0001) %MON DXV_max                      =   3.2380418162750E+05
(PID.TID 0000.0001) %MON DXV_min                      =   8.0152299824136E+04
(PID.TID 0000.0001) %MON DXV_mean                     =   2.8603970633619E+05
(PID.TID 0000.0001) %MON DXV_sd                       =   3.4145142117723E+04
(PID.TID 0000.0001) %MON YC_max                       =   8.7940663871962E+01
(PID.TID 0000.0001) %MON YC_min                       =  -8.7940663871962E+01
(PID.TID 0000.0001) %MON YC_mean                      =   0.0000000000000E+00
(PID.TID 0000.0001) %MON YC_sd                        =   3.8676242969072E+01
(PID.TID 0000.0001) %MON YG_max                       =   9.0000000000000E+01
(PID.TID 0000.0001) %MON YG_min                       =  -9.0000000000000E+01
(PID.TID 0000.0001) %MON YG_mean                      =  -1.2094344438470E-15
(PID.TID 0000.0001) %MON YG_sd                        =   3.9086186579984E+01
(PID.TID 0000.0001) %MON DYC_max                      =   3.2375185836900E+05
(PID.TID 0000.0001) %MON DYC_min                      =   1.1142031410131E+05
(PID.TID 0000.0001) %MON DYC_mean                     =   2.8605689051214E+05
(PID.TID 0000.0001) %MON DYC_sd                       =   3.4042087138252E+04
(PID.TID 0000.0001) %MON DYF_max                      =   3.2369947500827E+05
(PID.TID 0000.0001) %MON DYF_min                      =   1.2020820513318E+05
(PID.TID 0000.0001) %MON DYF_mean                     =   2.8605437324820E+05
(PID.TID 0000.0001) %MON DYF_sd                       =   3.4050524252539E+04
(PID.TID 0000.0001) %MON DYG_max                      =   3.2375195872773E+05
(PID.TID 0000.0001) %MON DYG_min                      =   1.0098378008791E+05
(PID.TID 0000.0001) %MON DYG_mean                     =   2.8603818508931E+05
(PID.TID 0000.0001) %MON DYG_sd                       =   3.4140406908005E+04
(PID.TID 0000.0001) %MON DYU_max                      =   3.2380418162750E+05
(PID.TID 0000.0001) %MON DYU_min                      =   8.0152299824136E+04
(PID.TID 0000.0001) %MON DYU_mean                     =   2.8603970633619E+05
(PID.TID 0000.0001) %MON DYU_sd                       =   3.4145142117723E+04
(PID.TID 0000.0001) %MON RA_max                       =   1.0479260248419E+11
(PID.TID 0000.0001) %MON RA_min                       =   1.4019007022556E+10
(PID.TID 0000.0001) %MON RA_mean                      =   8.2992246709265E+10
(PID.TID 0000.0001) %MON RA_sd                        =   1.7509089299457E+10
(PID.TID 0000.0001) %MON RAW_max                      =   1.0480965274559E+11
(PID.TID 0000.0001) %MON RAW_min                      =   1.2166903467143E+10
(PID.TID 0000.0001) %MON RAW_mean                     =   8.2992246709235E+10
(PID.TID 0000.0001) %MON RAW_sd                       =   1.7481917919656E+10
(PID.TID 0000.0001) %MON RAS_max                      =   1.0480965274559E+11
(PID.TID 0000.0001) %MON RAS_min                      =   1.2166903467143E+10
(PID.TID 0000.0001) %MON RAS_mean                     =   8.2992246709235E+10
(PID.TID 0000.0001) %MON RAS_sd                       =   1.7481917919656E+10
(PID.TID 0000.0001) %MON RAZ_max                      =   1.0484349334619E+11
(PID.TID 0000.0001) %MON RAZ_min                      =   8.8317900612505E+09
(PID.TID 0000.0001) %MON RAZ_mean                     =   8.2992246709235E+10
(PID.TID 0000.0001) %MON RAZ_sd                       =   1.7482297311044E+10
(PID.TID 0000.0001)  MDSREADFIELD: opening global file: topo.cs.bin
INI_P_GROUND: PhiRef/g [m] at Center (integer) and Interface (half-int.) levels:
  K=  0.5  ;  r=  100000.0  ;  phiRef/g=       0.000
  K=  1.0  ;  r=   95000.0  ;  phiRef/g=     424.731
  K=  1.5  ;  r=   90000.0  ;  phiRef/g=     874.677
  K=  2.0  ;  r=   85000.0  ;  phiRef/g=    1325.500
  K=  2.5  ;  r=   80000.0  ;  phiRef/g=    1815.974
  K=  3.0  ;  r=   75000.0  ;  phiRef/g=    2307.522
  K=  3.5  ;  r=   70000.0  ;  phiRef/g=    2848.395
  K=  4.0  ;  r=   65000.0  ;  phiRef/g=    3390.619
  K=  4.5  ;  r=   60000.0  ;  phiRef/g=    3996.186
  K=  5.0  ;  r=   55000.0  ;  phiRef/g=    4603.514
  K=  5.5  ;  r=   50000.0  ;  phiRef/g=    5295.750
  K=  6.0  ;  r=   45000.0  ;  phiRef/g=    5990.398
  K=  6.5  ;  r=   40000.0  ;  phiRef/g=    6806.021
  K=  7.0  ;  r=   35000.0  ;  phiRef/g=    7633.636
  K=  7.5  ;  r=   30000.0  ;  phiRef/g=    8652.617
  K=  8.0  ;  r=   25000.0  ;  phiRef/g=    9717.441
  K=  8.5  ;  r=   20000.0  ;  phiRef/g=   11150.457
  K=  9.0  ;  r=   15000.0  ;  phiRef/g=   12758.685
  K=  9.5  ;  r=   10000.0  ;  phiRef/g=   15515.848
  K= 10.0  ;  r=    5000.0  ;  phiRef/g=   19289.681
  K= 10.5  ;  r=       0.0  ;  phiRef/g=   39758.591
(PID.TID 0000.0001) // =======================================================
(PID.TID 0000.0001) // Field Model R_low (ini_masks_etc) at iteration          1
(PID.TID 0000.0001) // CMIN =          1.000000000000000E+32
(PID.TID 0000.0001) // CMAX =         -1.000000000000000E+32
(PID.TID 0000.0001) // CINT =          0.000000000000000E+00
(PID.TID 0000.0001) // SYMBOLS (CMIN->CMAX): -abcdefghijklmnopqrstuvwxyz+
(PID.TID 0000.0001) //                  0.0: .
(PID.TID 0000.0001) // RANGE I (Lo:Hi:Step):(  -1: 194:   1)
(PID.TID 0000.0001) // RANGE J (Lo:Hi:Step):(  34:  -1:  -1)
(PID.TID 0000.0001) // RANGE K (Lo:Hi:Step):(   1:   1:   1)
(PID.TID 0000.0001) // =======================================================
(PID.TID 0000.0001) // =======================================================
(PID.TID 0000.0001) // END OF FIELD                                          =
(PID.TID 0000.0001) // =======================================================
(PID.TID 0000.0001) 
(PID.TID 0000.0001) // =======================================================
(PID.TID 0000.0001) // Field Model Ro_surf (ini_masks_etc) at iteration          1
(PID.TID 0000.0001) // CMIN =          4.694989440380789E+04
(PID.TID 0000.0001) // CMAX =          1.000000000000000E+05
(PID.TID 0000.0001) // CINT =          1.964818725784893E+03
(PID.TID 0000.0001) // SYMBOLS (CMIN->CMAX): -abcdefghijklmnopqrstuvwxyz+
(PID.TID 0000.0001) //                  0.0: .
(PID.TID 0000.0001) // RANGE I (Lo:Hi:Step):(  -1: 194:   1)
(PID.TID 0000.0001) // RANGE J (Lo:Hi:Step):(  34:  -1:  -1)
(PID.TID 0000.0001) // RANGE K (Lo:Hi:Step):(   1:   1:   1)
(PID.TID 0000.0001) // =======================================================
(PID.TID 0000.0001) K =   1
(PID.TID 0000.0001) //                I=8       I=18      I=28      I=34      I=44      I=54      I=64      I=70      I=80      I=90      I=96      I=106     I=116     I=126     I=132     I=142     I=152     I=162     I=168     I=178     I=188
(PID.TID 0000.0001) // |--J--|*01234567|901234567|901234567|901234123|567890123|567890123|567890123|563456789|123456789|123456789|123456785|789012345|789012345|789012345|789078901|345678901|345678901|345678901|901234567|901234567|901234567|901234
(PID.TID 0000.0001) //     34 ..+++++++++++++++zzxwtwwtz+++pnmno....tnnv+zzzzzywvvrlommrrtttxyuy+++y....+++++++++++zxyyzyxwtlmnnnx++++++....++++++++++++++++++++++++++++++++....+++++++++++++++++xwwuwwwy+++++++....++++++++++++++++++++++++++++++++..
(PID.TID 0000.0001) //     33 ..+++++++++++++++zwqrvvvxyzrsprrtt....tonx+yzzyyxxwqprlmlqsttrwyux+++z....++++++++++zxxyyyyxwtomnopu++++++....++++++++++++++++++++++++++++++++....+++++++++++++++++zyxwwuut+++++++....++++++++++++++++++++++++++++++++..
(PID.TID 0000.0001) //     32 +++++++++++++++++wuwwvwsuxutprwxyxtoyxtoonzuvzywnmmjlopprrssrsy++wx+xxxu++++++++++++ywyyyyxxxtqmnqqs+++++++++++++++++++++++++++++++++++++++++++++++++++++++++++++++zywwvvuty++++++++++++++++++++++++++++++++++++++++++++
(PID.TID 0000.0001) //     31 +++++++++++++++ztty+zzvxuzvruxwxyzupyzupooqrpxxoiemrtttnnrrsrvzz+zyzwxz+++++++++++zzyxxyxyxyxvtqnrry+++++++++++++++++++++++++++++++++++++++++++++++++++++++++++++++zyyxvvwwvwy++++++++++++++++++++++++++++++++++++++++++
(PID.TID 0000.0001) //     30 ++++++++++++++++wu++++y++++++xuvxzzsxzzskossrroodciolffediorsyz++++wx+++++++++++++zzxwxyzyxyxwuspsw+++++++++++++++++++++++++++++++++++++++++++++++++++++++++++++zzzyyxxxvxxuuv++++++++++++++++++++++++++++++++++++++++++
(PID.TID 0000.0001) //     29 ++++++++++++++++xxuuv++++++++vvvwyz+wyz+pmosrokkje-aaaacdhmruyz++++++++++++++++++zzywwxz+zyyxwwsprw+++++++++++++++++++++++++++++++++++++++++++++++++++++++++++++yyzzyxxwwxxxwxy+++++++++++++++++++++++++++++++++++++++++
(PID.TID 0000.0001) //     28 +++++++++++++++uptuxxxyzzzzzxtuvvwy+vwy+xonnrrnpymcaaaa-bdkssyxxy+++++++++++++++++yxxwxz++zyxxwtpqx++++++++++++++++++++++++++++++++++++++++++++++++++++++++++++zyyzzyyyxyyyyzzyz++++++++++++++++++++++++++++++++++++++++
(PID.TID 0000.0001) //     27 ++++++++++++++ysvwwxxwwxzzzyxxtttwwytwwyzwttrppwyyia-acbccruvyxvy++++++++++++++++++zxxyz+++yxxwvsry++++++++++++++++++++++++++++++++++++++++++++++++++++++++++++xvyz+zyxxyzzzzzzz++++++++++++++++++++++++++++++++++++++++
(PID.TID 0000.0001) //     26 +++++++++++++zxxxyxwwwwwyyxxyxwuuvvxuvvxzzw+yxxzxyxxmmmohhnsvwwvv++++++++++++++++++++yzx++zyyxwwrry+++++++++++++++++++++++++++++++++++++++++++++++++++++++++++yuty++zyxyyxyzz+++z+++z+++++++++++++++++++++++++++++++++++
(PID.TID 0000.0001) //     25 +++++++++++++yyyyywtstvwvxvxyxw+suvysuvyzzww+++zwxxxxzvurpquxxytt+++++++++++++++++++++xz+yyzyxxurrz+++++++++++++++++++++++++++++++++++++++++++++++++++++++++++xtsv+++yyxkkksyxyzy+++y+++++++++++++++++++++++++++++++++++
(PID.TID 0000.0001) //     24 +++++++++++++yyyyyxvuwvppwwxyxv+prvxprvxyzz++++zxxxxx+ywsrtyz++++++++++++++++++++++xz+ty+yzzyxytrs++++++++++++++++++++++++++++++++++++++++++++++z+++++++++++++vyyzz+zzwiedddlsvyz+++z+++++++++++++++++++++++++++++++++++
(PID.TID 0000.0001) //     23 +++++++++++++zyyyywxtvxxxvvxxxwtxnuvxnuvwz++++++xxyw+++zuvvxz+++uy+++++++++++++++++mqzzxvyz+zyyusqw+++++++++++++++++++++++++++++++++++++++++++++z++++++++++v+zrnyyzzzygdlnzndfhrwwy+wwy++++++++++++++xttwz++++++++++++++
(PID.TID 0000.0001) //     22 +++++++++++++zyyyyxyxxyyxvuvwxuoxnrxxnrx++++++++ywy+++++yxyuw+++x++++++++++++++++++rmqzzzwz+zzywtruxz+++++++++++++++++++++++++++++++++++++++++++yyz+++++++++++uqmwzzyuff++++++vrrtvwrtvwz+++++++++++rlihjnqu++++++++++++
(PID.TID 0000.0001) //     21 +++++++++++++yxxyyyyxxyywvtwwxpmux++ux+++++++++++vw++++++zyzv+++yz+++++++++++++++++rjknsxwz+z++wtuqwyz++++++++++++++++++++++++++++++++++++++++++xwxz++++++y++++ttlqvnfn++++++++++xts+xtsuyy+++v+++++pljijkllr+++++++++++
(PID.TID 0000.0001) //     20 +++++++++++++xwxyyxxvwwxxwvxxxolqsuvqsuv+++++++++wz++++++z+++++++yy++++++++++++++z+ukklnury+++++txxx+z++++++++++++++++++++++++++++++++++++++++++xyxxxz++++z+++zy++rmr++++++++++++++v+++vuy++++utz++xpljiikllq+++++++++++
(PID.TID 0000.0001) //     19 ++++++++++++++xxyyyyysuvxwvwxwpmpwwypwwy++++++++++y++++++y+++++x+yv+++++z++++++++w++qmmnvr++++++yyyz++++++++++++++++++++++++++++++++++++++++++++yyyyvwz+++++++s++++++++++++++++++++++++++++++++rqx+wrmkhhkmru+++++++++++
(PID.TID 0000.0001) //     18 ++++++++++++++++++++zvwwxwwvuttrvxz+vxz+++++++++++++++++vwx+++vw++++++++t+++zzz++++++urqz+++++++++z+++++++++++++++++++++++++++++++++++++++++++++xyyyywz+++++vuy+++++++++++++++++++++++++++++++++vszxqmkhghjkmu++++++++++
(PID.TID 0000.0001) //     17 +++++++++++++++++++++ywxyyxvrtpsyz++yz++++++++++++++++++yuz+zxuwz++z++++twzzyyy++++++++z+++++++++zy+++++++++++++++++++++++++++++++++++++++++++++yyyzzzz+++++ut++++++++++++++++++++++++++++++++++vtturmkighhikq++++++++++
(PID.TID 0000.0001) //     16 +++++++++++++++++++++ywxyxxtptprz+++z++++++++++++++++++++uy++yy+uy+zyyyyyuwz+++++++++++++++++++++wyy++++++++++++++++++++++++++++++++z+++++++++++xxyyyz+++++zpz++++++++++++++++++++++++++++++++++wsooomkjihhikp++++++++++
(PID.TID 0000.0001) //     15 zzzxz+++++++++++++++++xwwxwtqtrs++++++++++++++++++++++++++vz++z+wx+++ynn+wqxy++ttx+++zx+++++++++zwwu+++++++++++++++++++++++++++++++++++++++xxz++yxxxyyz++++zv+++++++++++++++++++++++++++++++++++ztqrtnlkjiijlp++++++++++
(PID.TID 0000.0001) //     14 yyywxx++++++++++++++++yuvvvusssv+++++++++++++++++++++++++++yyyz+++++++++zwrwy+zzwwuw++++++++++++zxvy+++++++++++++++++++++++++++++++++++++++++wx+xxwwwxxyzzwnx++++++++++++++++++++++++++++++++++++toux+qnmkjkmq++++++++++
(PID.TID 0000.0001) //     13 ywxwxy++++++++++++++++xstttsrqrw+++++++++++++++++++++++++++++++y+z++++++zvvtxz+++zyy++++++y++++zzxuxuw++++++++++++++++++++++++++++++++++++++++++vtttttuvtpnm+++++++++++++++++++++++++++++++++++++zpuy+zpmlklpw++++++++++
(PID.TID 0000.0001) //     12 xwwuy+++++++++++++++++srstssssuxz+++z+++++++++++++++++++++++++++++++++++vwvwxzzzzzyy++yx+++y++zxwvuxzux++++++++++++++++++++++++++++++z++++++++++tqoljorrrnpr+++++++++++++++++++++++++++++++++++++++++++rmmlms+++++++++++
(PID.TID 0000.0001) //     11 vvwwz+++++++++++++++++sssuttutuwz++tz++t++++++++++++++++++++++++++zzzz++xsvwwzzzzzzz++z++zzzzyuvrrty++y+++++++++++++++++++++++++++++++++++++++++qmmmlnqont+++++++++++++++++++++++++++++++++++++++++++++ponnpz+++++++++++
(PID.TID 0000.0001) //     10 vvuw++++++++++++++++++sttuutsty+++tt++tt+++++++++++++++++++++++++zxxyyy+uuxtwzzzzzzzzzz++zyxxywstqv++++++++++++++++++++++++++++++z++++++++++++++nnnnopsu+++++++++++++++++++++++++++++++++++++++++++++++rqrux++++++++++++
(PID.TID 0000.0001) //      9 wuuw++++++++++++++++++xrsuuttv++++rt++rt++++++++++++++++++++++++zzyxyyyyzxyzzzzzzzzzzww++zuwwxyyyww+++++++++++++++++++++++++++++++++++++++++++++rqonrwxyx+++++++++++++++++++++++++++++++++++++++++++++++++++++++++++++++
(PID.TID 0000.0001) //      8 wtty+++++++++++++++++++rsuuuvz++++tz++tz++++++++++++++++++++++ywxyxxxxyyvuz++zzzzzzzxzzzzzwwwxyxwuuyyy++++++++++++++++++++++++++++++++++++++++++rqpnrsz+++++++++++++++++++++++++++++++++++++++++++++++++++++++++++++++++
(PID.TID 0000.0001) //      7 vy+++++++++++++++++++++sutsrr+++++w+++w+++++++++++++++++++++++yxwxxwwxyzrtr+zzzzzzzzyzzzzzxxxxwvusutwxyz+++++++++++++++++++++++++++++++yxvwvv+w+ysuxx+++++++++++++++++++++++++++++++++++++++++++++++++++++++++++++++++++
(PID.TID 0000.0001) //      6 w++++++++++++++++++++++wussps+++++++++++++++++++++++++++++++++yxxxxwwxz+ups+vvzzzzywzzzzzzxxxwtsuwxuxv+xz+++z++++++++++++++++++++y++++zxyzyywy++++++++++++++++++++++++++++++++++++++++++++++++++++++++++++++++++++++++++
(PID.TID 0000.0001) //      5 y++++++++++++++++++++++ztrqp++++++++++++++++++++++++++++++++++yxxyyyyyz+xrppumz++zyxzzzzzzyyxurtuvxxxv++xy++xy++++++++++++++++++tw+++yyxyzzzzy++++++++++++++++++++++++++++++++++++++++++++++++++++++++++++++++++++++++++
(PID.TID 0000.0001) //      4 ++++++++++++++++++++++++www+++++++++++++++++++++++++++++++++++yyyzzzzzzywwrnnmz++zyyyyzzyuussusuuvywww+++wy++wy++++++++++++++++un++zxwyyzzzzzz++++++++++++++++++++++++++++++++++++++++++++++++++++++++++++++++++++++++++
(PID.TID 0000.0001) //      3 +++++++++++++++++++++++++++++++++++++++++++++++++++++++++++++++++++++zzyxxrmnrzzzzzzxxxxuqpoosrtuuyyvw+++xr++xr++++++++++++++++pp++zzzyzzzzyyz++++++++++++++++++++++++++++++++++++++++++++++++++++++++++++++++++++++++++
(PID.TID 0000.0001) //      2 ++++++++++++++++++++++++++++++++++++++++++++++++++++++++++++++++++++++zyyytnnv+zzzzzywvvrlommrrtttxyuy+++yu++yu+++++++++++++++yn+++++yyz++yyy+++++++++++++++++++++++++++++++++++++++++++++++++++++++++++++++++++++++++++
(PID.TID 0000.0001) //      1 ++++++++++++++++++++++++++++++++++++++++++++++++++++++++++++++++++++++++zxtonx+yzzyyxxwqprlmlqsttrwyux+++zxz+zxz++++++++++++++yn++++yyyyzzzzz+++++++++++++++++++++++++++++++++++++++++++++++++++++++++++x++++++w++++++++
(PID.TID 0000.0001) //      0 ..++++++++++++++++++++++++++++++++....++++++++++++++++++++++++++++++++....toonzuvzywnmmjlopprrssrsy++wx+xx....xx++++++++++++++yy+++zyyxxxyzz++....++++++++++++++++++++++++++++++++....+++++++++++++++++zw+++++++yyzz++..
(PID.TID 0000.0001) //     -1 ..++++++++++++++++++++++++++++++++....++++++++++++++++++++++++++++++++....upooqrpxxoiemrtttnnrrsrvzz+zyzwx....xwx+++++++++++++y++++zyyxwwyz+++....++++++++++++++++++++++++++++++++....+++++++++++++++++x+++++++vwzzyyz..
(PID.TID 0000.0001) // =======================================================
(PID.TID 0000.0001) // END OF FIELD                                          =
(PID.TID 0000.0001) // =======================================================
(PID.TID 0000.0001) 
(PID.TID 0000.0001) // =======================================================
(PID.TID 0000.0001) // Field hFacC at iteration          1
(PID.TID 0000.0001) // CMIN =          2.000000000000000E-01
(PID.TID 0000.0001) // CMAX =          1.000000000000000E+00
(PID.TID 0000.0001) // CINT =          2.962962962962963E-02
(PID.TID 0000.0001) // SYMBOLS (CMIN->CMAX): -abcdefghijklmnopqrstuvwxyz+
(PID.TID 0000.0001) //                  0.0: .
(PID.TID 0000.0001) // RANGE I (Lo:Hi:Step):(  -1: 194:   1)
(PID.TID 0000.0001) // RANGE J (Lo:Hi:Step):(  34:  -1:  -1)
(PID.TID 0000.0001) // RANGE K (Lo:Hi:Step):(   1:   1:   1)
(PID.TID 0000.0001) // =======================================================
(PID.TID 0000.0001) K =   1
(PID.TID 0000.0001) //                I=8       I=18      I=28      I=34      I=44      I=54      I=64      I=70      I=80      I=90      I=96      I=106     I=116     I=126     I=132     I=142     I=152     I=162     I=168     I=178     I=188
(PID.TID 0000.0001) // |--J--|*01234567|901234567|901234567|901234123|567890123|567890123|567890123|563456789|123456789|123456789|123456785|789012345|789012345|789012345|789078901|345678901|345678901|345678901|901234567|901234567|901234567|901234
(PID.TID 0000.0001) //     34 ..+++++++++++++++xsh-.--.v+++.............+tsuuslb............jl.l+++p....+++++++++++udkoqpj-......d++++++....++++++++++++++++++++++++++++++++....+++++++++++++++++gcb.---o+++++++....++++++++++++++++++++++++++++++++..
(PID.TID 0000.0001) //     33 ..+++++++++++++++w-.....elt..............h+otuqode-...........-p.e+++v....++++++++++xfdknqli-.......++++++....++++++++++++++++++++++++++++++++....+++++++++++++++++uoe--...+++++++....++++++++++++++++++++++++++++++++..
(PID.TID 0000.0001) //     32 +++++++++++++++++c.--.-..j....bipf..pf....u..skc..............mxycg+jgj.+++++++++++zlblklkhid.......++++++++++++++++++++++++++++++++++++++++++++++++++++++++++++++yrmc-....o++++++++++++++++++++++++++++++++++++++++++++
(PID.TID 0000.0001) //     31 +++++++++++++++u..m+tt.i.w...f-jnt..nt.......je...............uu+vlvagw+++++++++++wvkdimjkhld......n++++++++++++++++++++++++++++++++++++++++++++++++++++++++++++++zsoog..--.-p++++++++++++++++++++++++++++++++++++++++++
(PID.TID 0000.0001) //     30 ++++++++++++++++-.++++p++++++e..ftr.ftr......................oqx+z+-g+++++++++++++uuhciqvnjof-....-+++++++++++++++++++++++++++++++++++++++++++++++++++++++++++++wswpmjjh.gi...++++++++++++++++++++++++++++++++++++++++++
(PID.TID 0000.0001) //     29 ++++++++++++++++dd...x+++++++...cktxcktx.....................nwx+++z+++++++++++++stk--hqxsoqjc-...-++++++++++++++++++++++++++++++++++++++++++++++++++++++++++++yomuumiib-fiebfp+++++++++++++++++++++++++++++++++++++++++
(PID.TID 0000.0001) //     28 +++++++++++++++....hhgmwsttuf....bkx.bkxi.......k............pgho+++++++++++++++++qhdciu+zuoie-...d++++++++++++++++++++++++++++++++++++++++++++++++++++++++++++wlnvxmkjjpplorqqt++++++++++++++++++++++++++++++++++++++++
(PID.TID 0000.0001) //     27 ++++++++++++++l..cciib-jtttqge...--l.--lw-.....amm...........kh.q++++++++++++++++++tiinv++ypif-...p+++++++++++++++++++++++++++++++++++++++++++++++++++++++++++zg.mvyuohdlsvwwwvw++++++++++++++++++++++++++++++++++++++++
(PID.TID 0000.0001) //     26 +++++++++++++uhejli---aamkhiofd....g...gwvc+mddshkii.........-d..++++++++++++++++++++orj++wpkjc-..q+++++++++++++++++++++++++++++++++++++++++++++++++++++++++++m..kzzwlikliqsvxxxu+++u+++++++++++++++++++++++++++++++++++
(PID.TID 0000.0001) //     25 ++++++++++++yoolnob....-.f.eog-+...k...ktv-d+++wbgggjw......jiq..+++++++++++++++++++++erxonrkii...r+++++++++++++++++++++++++++++++++++++++++++++++++++++++++++f...yyxpoh....khlvo+++o+++++++++++++++++++++++++++++++++++
(PID.TID 0000.0001) //     24 ++++++++++++yokllof..-...d-emi.+...g...gott++++uhddgg+p-...kwy++++++++++++++++++++zht+.lxorulfk...++++++++++++++++++++++++++++++++++++++++++++++w+++++++++++++.kktwxuq-........mqy++qy++++++++++++++++++++++++++++++++++
(PID.TID 0000.0001) //     23 ++++++++++++yslllkcg..ihh..fgi-.j...j...-u++++++idl-+++q...ft+++.m++++++++++++++++x..vsg.qqyqlk...a+++++++++++++++++++++++++++++++++++++++++++++vz+++++++++.+v..mnvwrn....s.....b-o+b-o++++++++++++++f..aw++++++++++++++
(PID.TID 0000.0001) //     22 ++++++++++++ytonlmijeglmh...-h..j..dj..d++++++++lck+++++odk.c+++j++++++++++++++++++...sxxbuyrsl-...jv+++++++++++++++++++++++++++++++++++++++++++klx+++++++++++...-vwn...++++++.....-...-s+++++++++++........y+++++++++++
(PID.TID 0000.0001) //     21 ++++++++++++zojjlmmlfimmc..--g...e++.e+++++++++++.a+++++ytlr.+++ls+++++++++++++++++.....j-txuz+-...-mr++++++++++++++++++++++++++++++++++++++++++dbfu++++++k+++z........++++++++++i..+i...ql+++.+++++.........+++++++++++
(PID.TID 0000.0001) //     20 +++++++++++++eagkojj.bajh-.ffd..........+++++++++-w++++++tyyz++zxkl++++++++++++++u+.......m+++++.djfxw++++++++++++++++++++++++++++++++++++++++++ilddiv++++w+++so+x...++++++++++++++.+++..q++++..r++e.........+++++++++++
(PID.TID 0000.0001) //     19 +++++++++++++ziiooono...d-.-ed...-bn.-bn++++++++++j++++++o+++++j+p.+++++u++++++++-+z......++++++ojpv++++++++++++++++++++++++++++++++++++++++++++mkkk.-vyz+x+++.++++++++++++++++++++++++++++++++..e+-.........+++++++++++
(PID.TID 0000.0001) //     18 ++++++++++++++++++++u.--ed-......iq+.iq+++++++++++++++++.-j+++.-++++++++.+++vuv++++++...w++++++++zs+++++++++++++++++++++++++++++++++++++++++++++jlnokdry++++..l+++++++++++++++++++++++++++++++++..vd..........++++++++++
(PID.TID 0000.0001) //     17 +++++++++++++++++++++kcfkkf.....ow++ow++++++++++++++++++p.w+wj.-v++u++++.cwxpok++++++++v++++++++zuk+++++++++++++++++++++++++++++++++++++++++++++kkqqssuz++zx..++++++++++++++++++++++++++++++++++..............++++++++++
(PID.TID 0000.0001) //     16 zy+++++++++++++++++++qcekie.....w+++w++++++++++++++++++++.kz+ll+.m+wqopom.-sy+++++++++++++++++++y-nn++++++++++++++++++++++++++++++++u+++++++++++hhlplqxz+++u.q++++++++++++++++++++++++++++++++++-.............++++++++++
(PID.TID 0000.0001) //     15 srugt+++++++++++++++++jbdeb.....++++++++++++++++++++++++++.w++x+ci++zn..+-.hozz..iz++wg+++++++++u-b.+++++++++++++++++++++++++++++++++++++++jjt++liijkluy+++s.+++++++++++++++++++++++++++++++++++v.............++++++++++
(PID.TID 0000.0001) //     14 omocff++++++++++++++++n.........+++++++++++++++++++++++++++oppw+++++++++t-.-jyur--.b++++++++++z+uh.l+++++++++++++++++++++++++++++++++++++++++-g+dd---fhluvb.g++++++++++++++++++++++++++++++++++++...iz........++++++++++
(PID.TID 0000.0001) //     13 ocebgm++++++++++++++++e........b+++++++++++++++++++++++++++++++mysy+++++t...hvyyywql++++++p++yyvtd.i.-++++++++++++++++++++++++++++++++++++++++++............+++++++++++++++++++++++++++++++++++++x..m+v......-++++++++++
(PID.TID 0000.0001) //     12 g--.p+++++++++++++++++.........gs+++s++++++++++++++++++++++++++++++++xz+.-.-etvwwtqn++ndx+xl+zud-..et.f++++++++++++++++++++++++++++++w++++++++++............+++++++++++++++++++++++++++++++++++++++++++......+++++++++++
(PID.TID 0000.0001) //     11 ..--u+++++++++++++++++.........-s++.s++.++++++++++++++++++++++++++rvsqz+i..-btrtvtuvyzvzzvruup.....p+xo+++++++++++++++++++++++++++++++++++++++++..........+++++++++++++++++++++++++++++++++++++++++++++.....w+++++++++++
(PID.TID 0000.0001) //     10 ...-y+++++++++++++++++........oy++..++..+++++++++++++++++++++++++wginqpx..e.crsrrttutwrxxtnijp-....+z++++++++++++++++++++++++++++s++++++++++++++........x++++++++++++++++++++++++++++++++++++++++++++++....j++++++++++++
(PID.TID 0000.0001) //      9 -..-++++++++++++++++++h.......y+++..++..++++++++++++++++++++++zyuqmjkmonwjlvrtsrsutus-axxr.-bioon--++++++++++++++++++++++++++++++z++++++++++++++.....-gkg+++++++++++++++++++++++++++++++++++++++++++++++++++++++++++++++
(PID.TID 0000.0001) //      8 -..o+++++++++++++++++++......sx+++.u++.u++++++++++++++++++++++oagljiedmo..t+xtssuuuserwwxtcadhmic..non++++++++++++++++++++++++++x+++++++++++++++......v+++++++++++++++++++++++++++++++++++++++++++++++++++++++++++++++++
(PID.TID 0000.0001) //      7 .o+++++++++++++++++++++......y++++-+++-+++++++++++++++++++++++mecigdbdou...+wvttrttrlwwwutffgg-.....cjpu+++++++++++++++++++++++++++++++og.-..z-+n..dd+++++++++++++++++++++++++++++++++++++++++++++++++++++++++++++++++++
(PID.TID 0000.0001) //      6 -++++++++++++++++++++++d.....+++++++++++++++++++++++++++++++++mffhgcciuy...+..vtwvnarwwwwufhf-...-i.i.+fv+++v++++++++++++++++++++l+++xsjlrmk-ly+++++++++++++++++++++++++++++++++++++++++++++++++++++++++++++++++++++++++
(PID.TID 0000.0001) //      5 p++++++++++++++++++++++s....++++++++++++++++++++++++++++++++++ohjknnnqvyf.....wzzumisuvwvsmke.....jgi.++jl++jl++++++++++++++++++.-+++mmgntsuwk++++++++++++++++++++++++++++++++++++++++++++++++++++++++++++++++++++++++++
(PID.TID 0000.0001) //      4 ++++++++++++++++++++++++cab+++++++++++++++++++++++++++++++++++olntuttttn-b....x++tmpqnsuq.........nb-b+++al++al++++++++++++++++..++td-oqrttwwu++++++++++++++++++++++++++++++++++++++++++++++++++++++++++++++++++++++++++
(PID.TID 0000.0001) //      3 ++++++++++++++++++++++++++++++++++++++++++++++++++++++++++++++++++++zurnji....xwutrtfgej..........nl.-+++g.++g.++++++++++++++++..+zwvuptvvvnqx++++++++++++++++++++++++++++++++++++++++++++++++++++++++++++++++++++++++++
(PID.TID 0000.0001) //      2 ++++++++++++++++++++++++++++++++++++++++++++++++++++++++++++++++++++++qpnp....+tsuuslb............jl.l+++p.++p.+++++++++++++++o.++++xnouyynnpy++++++++++++++++++++++++++++++++++++++++++++++++++++++++++++++++++++++++++
(PID.TID 0000.0001) //      1 ++++++++++++++++++++++++++++++++++++++++++++++++++++++++++++++++++++++zytf...h+otuqode-...........-p.e+++vjw+vjw++++++++++++++p.++zzpomouvtrqz++++++++++++++++++++++++++++++++++++++++++++++++++++++++++g++++++-y+++++++
(PID.TID 0000.0001) //      0 ..++++++++++++++++++++++++++++++++....++++++++++++++++++++++++++++++++........u..skc..............mxycg+jg....gg++++++++++++++on++xqqmddiqtu++....++++++++++++++++++++++++++++++++....+++++++++++++++++t-++++++zlkuxyz..
(PID.TID 0000.0001) //     -1 ..++++++++++++++++++++++++++++++++....++++++++++++++++++++++++++++++++...........je...............uu+vlvag....jag+++++++++++++qz+++snkebcntz++....++++++++++++++++++++++++++++++++....+++++++++++++++++j+++++++.-wwqpq..
(PID.TID 0000.0001) // =======================================================
(PID.TID 0000.0001) // END OF FIELD                                          =
(PID.TID 0000.0001) // =======================================================
(PID.TID 0000.0001) 
(PID.TID 0000.0001) // =======================================================
(PID.TID 0000.0001) // Field hFacW at iteration          1
(PID.TID 0000.0001) // CMIN =          2.000000000000000E-01
(PID.TID 0000.0001) // CMAX =          1.000000000000000E+00
(PID.TID 0000.0001) // CINT =          2.962962962962963E-02
(PID.TID 0000.0001) // SYMBOLS (CMIN->CMAX): -abcdefghijklmnopqrstuvwxyz+
(PID.TID 0000.0001) //                  0.0: .
(PID.TID 0000.0001) // RANGE I (Lo:Hi:Step):(  -1: 194:   1)
(PID.TID 0000.0001) // RANGE J (Lo:Hi:Step):(  34:  -1:  -1)
(PID.TID 0000.0001) // RANGE K (Lo:Hi:Step):(   1:   1:   1)
(PID.TID 0000.0001) // =======================================================
(PID.TID 0000.0001) K =   1
(PID.TID 0000.0001) //                I=8       I=18      I=28      I=34      I=44      I=54      I=64      I=70      I=80      I=90      I=96      I=106     I=116     I=126     I=132     I=142     I=152     I=162     I=168     I=178     I=188
(PID.TID 0000.0001) // |--J--|*01234567|901234567|901234567|901234123|567890123|567890123|567890123|563456789|123456789|123456789|123456785|789012345|789012345|789012345|789078901|345678901|345678901|345678901|901234567|901234567|901234567|901234
(PID.TID 0000.0001) //     34 ..+++++++++++++++xsh-..-..v++..............tssuslb.............j..l++p....+++++++++++uddkopj-.......d++++++...+++++++++++++++++++++++++++++++++...+++++++++++++++++gcb..---o+++++++...+++++++++++++++++++++++++++++++++.
(PID.TID 0000.0001) //     33 .++++++++++++++++w-......el...............hootqodd-............-..e++vjp.+++++++++++xfddknli-........+++++++.+++++++++++++++++++++++++++++++++++.++++++++++++++++++uoe--....++++++++.+++++++++++++++++++++++++++++++++++
(PID.TID 0000.0001) //     32 +++++++++++++++++c..-..........bif..if........kc...............mxccgjgg.+++++++++++zlbbkkkhhd........+++++++++++++++++++++++++++++++++++++++++++++++++++++++++++++yrmc-.....o+++++++++++++++++++++++++++++++++++++++++++
(PID.TID 0000.0001) //     31 +++++++++++++++u...mtt........--jn..jn........e................uuvllaagw++++++++++wvkddijjhhd.......n+++++++++++++++++++++++++++++++++++++++++++++++++++++++++++++zsoog...-..-p+++++++++++++++++++++++++++++++++++++++++
(PID.TID 0000.0001) //     30 ++++++++++++++++-..+++pp+++++e...fr..fr.......................oqxzz--g++++++++++++uuhcciqnjjf-.....-++++++++++++++++++++++++++++++++++++++++++++++++++++++++++++wsspmjjh..g....+++++++++++++++++++++++++++++++++++++++++
(PID.TID 0000.0001) //     29 ++++++++++++++++dd....x++++++....ckt.ckt......................nwx++zz++++++++++++ssk---hqsoojc-....-+++++++++++++++++++++++++++++++++++++++++++++++++++++++++++yommumiib--febbfp++++++++++++++++++++++++++++++++++++++++
(PID.TID 0000.0001) //     28 +++++++++++++++.....hggmssttf.....bk..bki.....................ggho++++++++++++++++qhdcciuzuoie-....d+++++++++++++++++++++++++++++++++++++++++++++++++++++++++++wllnvmkjjjplloqqqt+++t+++++++++++++++++++++++++++++++++++
(PID.TID 0000.0001) //     27 ++++++++++++++l...ccib--jttqge....--..--l-......am............h..q+++++++++++++++++tiiinv+ypif-....p++++++++++++++++++++++++++++++++++++++++++++++++++++++++++zg..mvuohddlsvwwvvw+++w+++++++++++++++++++++++++++++++++++
(PID.TID 0000.0001) //     26 +++++++++++++uheeji----aakhhifd.........gvccmdddhhii..........-...+++++++++++++++++++oojj+wpkjc-...q++++++++++++++++++++++++++++++++++++++++++++++++++++++++++m...kzwliikiiqsvxxuu++uu++++++++++++++++++++++++++++++++++
(PID.TID 0000.0001) //     25 ++++++++++++yoollnb.........eg--........kt--d++wbbgggj.......ii...++++++++++++++++++++eeronnkii....r++++++++++++++++++++++++++++++++++++++++++++++++++++++++++f....yxpoh.....hhloo++oo++++++++++++++++++++++++++++++++++
(PID.TID 0000.0001) //     24 ++++++++++++yokkllf.......--ei..........gott+++uhdddggp-....kwy+++++++++++++++++++zhht..loorlff....+++++++++++++++++++++++++++++++++++++++++++++uw++++++++++++..kktwuq-.........mqy+mqy+++++++++++++++++++++++++++++++++
(PID.TID 0000.0001) //     23 ++++++++++++yslllkcc...hh...fg-..........-u+++++idd--++q....ft++..m+++++++++++++++x...sg..qqqlk....a++++++++++++++++++++++++++++++++++++++++++++uvz++++++++..v...mnvrn...........--o.--o+++++++++++++f...aw+++++++++++++
(PID.TID 0000.0001) //     22 ++++++++++++ytonlliieeglh....-..........d+++++++lcck++++odd..c++jj+++++++++++++++++....sxbburrl-....jv++++++++++++++++++++++++++++++++++++++++++hklx++++++++++....-vn....+++++..........-s++++++++++.........y++++++++++
(PID.TID 0000.0001) //     21 ++++++++++++zojjjlmlffimc...--....e+..e++++++++++..a++++ytll..++lls++++++++++++++++......--tuuz-....-mr+++++++++++++++++++++++++++++++++++++++++cbbfu+++++kk++z.........+++++++++i..+i....ll++..++++..........++++++++++
(PID.TID 0000.0001) //     20 +++++++++++++eaagkjj..aah-..fd...........++++++++--w+++++ttyyz+zxkkl+++++++++++++uu........m++++..dffww+++++++++++++++++++++++++++++++++++++++++iidddiv+++ww++soox....+++++++++++++.+++...q+++...r+e..........++++++++++
(PID.TID 0000.0001) //     19 +++++++++++++ziiioonn....-..-d....-b..-bn+++++++++jj+++++oo++++jjp..++++uu+++++++--z.......+++++ojjpv+++++++++++++++++++++++++++++++++++++++++++mkkk..-vyzxx++..+++++++++++++++++++++++++++++++...e-..........++++++++++
(PID.TID 0000.0001) //     18 w+++++++++++++++++++u..--d-.......iq..iq++++++++++++++++..-j++..-+++++++..++vuuv+++++....w+++++++zss++++++++++++++++++++++++++++++++++++++++++++jjlnkddry+++...l++++++++++++++++++++++++++++++++...d...........+++++++++
(PID.TID 0000.0001) //     17 s++++++++++++++++++++kccfkf......ow+.ow+++++++++++++++++p..wwj..-v+uu+++..cwpokk+++++++vv+++++++zukk++++++++++++++++++++++++++++++++++++++++++++kkkqqssuz+zx...+++++++++++++++++++++++++++++++++...............+++++++++
(PID.TID 0000.0001) //     16 wyy++++++++++++++++++qcceie......w++.w+++++++++++++++++++..kzlll..mwqooom..-sy++++++++++++++++++y--nn+++++++++++++++++++++++++++++++uu++++++++++hhhlllqxz++u..q+++++++++++++++++++++++++++++++++-..............+++++++++
(PID.TID 0000.0001) //     15 prrggt++++++++++++++++jbbdb......+++.+++++++++++++++++++++..w+xxcci+zn..+-..hoz...iz+wgg++++++++u--..++++++++++++++++++++++++++++++++++++++jjjt+liiijkluy++s..++++++++++++++++++++++++++++++++++v..............+++++++++
(PID.TID 0000.0001) //     14 mmmccff+++++++++++++++n..........+++.++++++++++++++++++++++ooppw++++++++t-..-jur--..b+++++++++zzuh..l++++++++++++++++++++++++++++++++++++++++--gdd----fhlub..g+++++++++++++++++++++++++++++++++++....i.........+++++++++
(PID.TID 0000.0001) //     13 jccbbgm+++++++++++++++e.........b+++b++++++++++++++++++++++++++mmssy++++t....hvyywqll+++++pp+yyvtd....-+++++++++++++++++++++++++++++++++++++++++.............++++++++++++++++++++++++++++++++++++x...mv.......-+++++++++
(PID.TID 0000.0001) //     12 g--..p++++++++++++++++..........gs++gs+++++++++++++++++++++++++++++++xxz....-etvwtqnn+nddxxllzud-...e..f+++++++++++++++++++++++++++++ww+++++++++.............++++++++++++++++++++++++++++++++++++++++++.......++++++++++
(PID.TID 0000.0001) //     11 ...--u++++++++++++++++..........-s+.-s+..+++++++++++++++++++++++++rrsqqzi...-brrtttuvyvvzvrrup......pxoo++++++++++++++++++++++++++++++++++++++++...........++++++++++++++++++++++++++++++++++++++++++++......w++++++++++
(PID.TID 0000.0001) //     10 ....-y++++++++++++++++.........oy+..y+...++++++++++++++++++++++++wgginpp.....crrrrttttrrxtniij-.....zz+++++++++++++++++++++++++++ss+++++++++++++.........x+++++++++++++++++++++++++++++++++++++++++++++.....j+++++++++++
(PID.TID 0000.0001) //      9 -...-+++++++++++++++++h........y++..++...+++++++++++++++++++++zyuqmjjkmnwjjlrrsrrstts--axr..-bion---+++++++++++++++++++++++++++++zz+++++++++++++......-ggg++++++++++++++++++++++++++++++++++++++++++++++++++++++++++++++
(PID.TID 0000.0001) //      8 -...o++++++++++++++++++.......sx++..++..u+++++++++++++++++++++oaagjieddm...txtsssuuseerwwtcaadhic...nnn+++++++++++++++++++++++++xx++++++++++++++.......v++++++++++++++++++++++++++++++++++++++++++++++++++++++++++++++++
(PID.TID 0000.0001) //      7 ..o++++++++++++++++++++.......y+++--++--++++++++++++++++++++++meccgdbbdo....wvttrrtrllwwutfffg-......cjpu+++u++++++++++++++++++++++++++og.....--n...dd++++++++++++++++++++++++++++++++++++++++++++++++++++++++++++++++++
(PID.TID 0000.0001) //      6 .-+++++++++++++++++++++d......++++++++++++++++++++++++++++++++mfffgccciu.......ttvnaarwwwufff-....-....ffv++fv+++++++++++++++++++ll++xsjjlmk--ly++++++++++++++++++++++++++++++++++++++++++++++++++++++++++++++++++++++++
(PID.TID 0000.0001) //      5 .p+++++++++++++++++++++s.....+++++++++++++++++++++++++++++++++ohhjknnnqve......wzumiisuvvsmke......gg..+jjl+jjl+++++++++++++++++..-++mmggnssukk+++++++++++++++++++++++++++++++++++++++++++++++++++++++++++++++++++++++++
(PID.TID 0000.0001) //      4 ++++++++++++++++++++++++caab++++++++++++++++++++++++++++++++++ollntttttn.-.....x+tmmpnnsq..........b--b++aal+aal+++++++++++++++...+td--oqrttwuu+++++++++++++++++++++++++++++++++++++++++++++++++++++++++++++++++++++++++
(PID.TID 0000.0001) //      3 ++++++++++++++++++++++++++++++++++++++++++++++++++++++++++++++++++++zurn.i.....wutrrffee...........l..-++g..+g..+++++++++++++++...zwvupptvvnnqx+++++++++++++++++++++++++++++++++++++++++++++++++++++++++++++++++++++++++
(PID.TID 0000.0001) //      2 ++++++++++++++++++++++++++++++++++++++++++++++++++++++++++++++++++++++qpfn.....tssuslb.............j..l++p..+p..++++++++++++++o..+++xnnouynnnpy+++++++++++++++++++++++++++++++++++++++++++++++++++++++++++++++++++++++++
(PID.TID 0000.0001) //      1 ++++++++++++++++++++++++++++++++++++++++++++++++++++++++++++++++++++++zytf....hootqodd-............-..e++vjj+vjjw+++++++++++++p..+zzpommoutrqqz+++++++++++++++++++++++++++++++++++++++++++++++++++++++++gg+++++--y++++++
(PID.TID 0000.0001) //      0 .+++++++++++++++++++++++++++++++++++.+++++++++++++++++++++++++++++++++z+..........kc...............mxccgjggg.gggg+++++++++++++onn+xqqmdddiqtu+++.+++++++++++++++++++++++++++++++++++.++++++++++++++++++t--+++++zlkkuxyzq
(PID.TID 0000.0001) //     -1 ..+++++++++++++++++++++++++++++++++...++++++++++++++++++++++++++++++++y...........e................uuvllaag...jaag++++++++++++qqz++snkebbcntz++...+++++++++++++++++++++++++++++++++...+++++++++++++++++jj++++++..-wqppq.
(PID.TID 0000.0001) // =======================================================
(PID.TID 0000.0001) // END OF FIELD                                          =
(PID.TID 0000.0001) // =======================================================
(PID.TID 0000.0001) 
(PID.TID 0000.0001) // =======================================================
(PID.TID 0000.0001) // Field hFacS at iteration          1
(PID.TID 0000.0001) // CMIN =          2.000000000000000E-01
(PID.TID 0000.0001) // CMAX =          1.000000000000000E+00
(PID.TID 0000.0001) // CINT =          2.962962962962963E-02
(PID.TID 0000.0001) // SYMBOLS (CMIN->CMAX): -abcdefghijklmnopqrstuvwxyz+
(PID.TID 0000.0001) //                  0.0: .
(PID.TID 0000.0001) // RANGE I (Lo:Hi:Step):(  -1: 194:   1)
(PID.TID 0000.0001) // RANGE J (Lo:Hi:Step):(  34:  -1:  -1)
(PID.TID 0000.0001) // RANGE K (Lo:Hi:Step):(   1:   1:   1)
(PID.TID 0000.0001) // =======================================================
(PID.TID 0000.0001) K =   1
(PID.TID 0000.0001) //                I=8       I=18      I=28      I=34      I=44      I=54      I=64      I=70      I=80      I=90      I=96      I=106     I=116     I=126     I=132     I=142     I=152     I=162     I=168     I=178     I=188
(PID.TID 0000.0001) // |--J--|*01234567|901234567|901234567|901234123|567890123|567890123|567890123|563456789|123456789|123456789|123456785|789012345|789012345|789012345|789078901|345678901|345678901|345678901|901234567|901234567|901234567|901234
(PID.TID 0000.0001) //     34 .++++++++++++++++w-......lt..........f....+osuqodb............-l.e+++p...+++++++++++xfdknqli-.......+++++++..++++++++++++++++++++++++++++++++++..++++++++++++++++++gcb.-...++++++++..++++++++++++++++++++++++++++++++++.
(PID.TID 0000.0001) //     33 +++++++++++++++++c.......j................u..skc..............-p.cg+jgj.+++++++++++zlbdklkhi-.......++++++++++++++++++++++++++++++++++++++++++++++++++++++++++++++yrmc-....o++++++++++++++++++++++++++++++++++++++++++++
(PID.TID 0000.0001) //     32 +++++++++++++++u...--....j....-inf..nf.......je...............muycgvagj.++++++++++wvkbikjkhid.......++++++++++++++++++++++++++++++++++++++++++++++++++++++++++++++yrmc-.....-p++++++++++++++++++++++++++++++++++++++++++
(PID.TID 0000.0001) //     31 +++++++++++++++u..m+tt.i.w...e..ft..ft........................qu+vl-agw+++++++++++uuhcimjkhld......n++++++++++++++++++++++++++++++++++++++++++++++++++++++++++++wswpmjg..--...++++++++++++++++++++++++++++++++++++++++++
(PID.TID 0000.0001) //     30 ++++++++++++++++-....xp++++++...ckr.ckr......................nqx+z+-g++++++++++++stk--hqvnjof-....-++++++++++++++++++++++++++++++++++++++++++++++++++++++++++++yomupmiib.fi...p+++++++++++++++++++++++++++++++++++++++++
(PID.TID 0000.0001) //     29 +++++++++++++++......gmwsttuf....bkx.bkx.....................ngho++z+++++++++++++sqh--hqxsooic-...-++++++++++++++++++++++++++++++++++++++++++++++++++++++++++++wlmuumiib-fiebfpt++++++++++++++++++++++++++++++++++++++++
(PID.TID 0000.0001) //     28 ++++++++++++++l....hhb-jsttqf....--l.--li.......k............kg.o+++++++++++++++++qhdciu+zuoie-...d+++++++++++++++++++++++++++++++++++++++++++++++++++++++++++zg.mvxmkhdlplorqqt++++++++++++++++++++++++++++++++++++++++
(PID.TID 0000.0001) //     27 +++++++++++++uh..cc----amkhige.....g...gw-.....ahk...........-d..++++++++++++++++++tiinj++wpif-...p+++++++++++++++++++++++++++++++++++++++++++++++++++++++++++m..kvyulhdliqsvwvwu+++u+++++++++++++++++++++++++++++++++++
(PID.TID 0000.0001) //     26 ++++++++++++yohejlb....-.f.eof-....g...gtv-dmddsbggg.........-d..++++++++++++++++++++oejxonpkic...q+++++++++++++++++++++++++++++++++++++++++++++++++++++++++++f...yywlih....khlvo+++o+++++++++++++++++++++++++++++++++++
(PID.TID 0000.0001) //     25 ++++++++++++yokllob......d.emg.+...g...got-d+++ubddggw......jiq..+++++++++++++++++zht+.lxonrkfi...r+++++++++++++++++++++++++++++++++++++++++++++w+++++++++++++....wxup-........moy++oy++++++++++++++++++++++++++++++++++
(PID.TID 0000.0001) //     24 ++++++++++++yokllkc........egi..........-tt++++uhdd-g+p-...fty++.m++++++++++++++++x..v.g.oqulfk...a+++++++++++++++++++++++++++++++++++++++++++++vz+++++++++.+v..knvwrn..........b-o+b-o++++++++++++++f..aw++++++++++++++
(PID.TID 0000.0001) //     23 ++++++++++++yslllkcg..ihh...-h..j...j...-u++++++ick-+++q....c+++.m++++++++++++++++x...sg.bqyqlk....jv+++++++++++++++++++++++++++++++++++++++++++klx++++++++.+v...-vwn.....s........-...-s+++++++++++........y+++++++++++
(PID.TID 0000.0001) //     22 ++++++++++++yojjlmijeglmc...-g.....d...d++++++++l.a+++++odk..+++js+++++++++++++++++.....j-txrsl-...-mr++++++++++++++++++++++++++++++++++++++++++dbfu++++++k+++..........++++++...........ql+++.+++++.........+++++++++++
(PID.TID 0000.0001) //     21 ++++++++++++zeagkmjj.bajc..--d..........+++++++++.a+++++ytlr.++zlkl++++++++++++++u+.......mxuz+-...-mr++++++++++++++++++++++++++++++++++++++++++dbddiv++++k+++s........++++++++++i..+i...ql+++..r++e.........+++++++++++
(PID.TID 0000.0001) //     20 +++++++++++++eagkojj....d-.-ed..........+++++++++-j++++++oyyz++jxk.+++++u++++++++-+.......m+++++.djfxw++++++++++++++++++++++++++++++++++++++++++ikdd.-vyz+w+++.o+x...++++++++++++++.+++..q++++...e+-.........+++++++++++
(PID.TID 0000.0001) //     19 +++++++++++++ziiooono...d-.......-bn.-bn++++++++++j+++++.-j+++.-+p.+++++.+++vuv++-+z......++++++ojpv++++++++++++++++++++++++++++++++++++++++++++jkkk.-ryz+x+...++++++++++++++++++++++++++++++++...v-..........++++++++++
(PID.TID 0000.0001) //     18 ++++++++++++++++++++u.--ed-......iq+.iq+++++++++++++++++..j+wj.-v++u++++.cwxpok++++++...w+++++++zuk+++++++++++++++++++++++++++++++++++++++++++++jknokdry++zx..l+++++++++++++++++++++++++++++++++..............++++++++++
(PID.TID 0000.0001) //     17 zy+++++++++++++++++++kcekie.....ow++ow++++++++++++++++++p.kzwj.-.m+uqopo..-spok++++++++v++++++++y-kn++++++++++++++++++++++++++++++++u+++++++++++hhlplquz++zu..++++++++++++++++++++++++++++++++++..............++++++++++
(PID.TID 0000.0001) //     16 srugt++++++++++++++++qcbdeb.....w+++w++++++++++++++++++++..w+ll+.i+wqn..m..hozz..iz++wg+++++++++u-b.++++++++++++++++++++++++++++++++u++++++jjt++hhijkluy+++s.q++++++++++++++++++++++++++++++++++-.............++++++++++
(PID.TID 0000.0001) //     15 omocff++++++++++++++++j.........++++++++++++++++++++++++++.oppw+ci++zn..t-.-jyu..-.b+wg+++++++z+u-..+++++++++++++++++++++++++++++++++++++++jj-g+dd---fhluvb..+++++++++++++++++++++++++++++++++++v.............++++++++++
(PID.TID 0000.0001) //     14 ocebff++++++++++++++++e.........+++++++++++++++++++++++++++oppwmysy+++++t...hvur--.b++++++p++yyvtd.i.-+++++++++++++++++++++++++++++++++++++++-g+............g++++++++++++++++++++++++++++++++++++...iz........++++++++++
(PID.TID 0000.0001) //     13 g--.gm++++++++++++++++.........bs+++s++++++++++++++++++++++++++mysy++xz+....etvwwtql++ndx+pl+yud-..e..f++++++++++++++++++++++++++++++w++++++++++............+++++++++++++++++++++++++++++++++++++x..m+v......-++++++++++
(PID.TID 0000.0001) //     12 ..-.p+++++++++++++++++.........-s++.s++.++++++++++++++++++++++++++rvsqz+...-btrtvtqnyzndxvrlup.....et.f++++++++++++++++++++++++++++++w++++++++++............+++++++++++++++++++++++++++++++++++++++++++......+++++++++++
(PID.TID 0000.0001) //     11 ...-u+++++++++++++++++.........-s+..s+..+++++++++++++++++++++++++wginqpx....brrrrttutwrxxtnijp.....pzxo++++++++++++++++++++++++++s++++++++++++++..........+++++++++++++++++++++++++++++++++++++++++++++.....w+++++++++++
(PID.TID 0000.0001) //     10 ...-y+++++++++++++++++........oy++..++..++++++++++++++++++++++zyuqgikmon..e.crsrrttus-axxr.-bi-....+z++++++++++++++++++++++++++++s++++++++++++++........g++++++++++++++++++++++++++++++++++++++++++++++....j++++++++++++
(PID.TID 0000.0001) //      9 -..-++++++++++++++++++h.......x+++..++..++++++++++++++++++++++oagljiedmn..lvrtsrsutse-awxr.-bhmic..non++++++++++++++++++++++++++xz++++++++++++++......gkg+++++++++++++++++++++++++++++++++++++++++++++++++++++++++++++++
(PID.TID 0000.0001) //      8 ...o+++++++++++++++++++......sx+++.u++.u++++++++++++++++++++++macigdbdmo...+wtssrttrerwwutcadg-.....cjpu++++++++++++++++++++++++x++++++og.-..z-+......v+++++++++++++++++++++++++++++++++++++++++++++++++++++++++++++++++
(PID.TID 0000.0001) //      7 .o+++++++++++++++++++++......y++++-+++-+++++++++++++++++++++++mechgcbdou...+..ttrtnalwwwutfff-......c.pfv+++v++++++++++++++++++++l+++xsjg.-..l-+n..dd+++++++++++++++++++++++++++++++++++++++++++++++++++++++++++++++++++
(PID.TID 0000.0001) //      6 -++++++++++++++++++++++d.....+++++++++++++++++++++++++++++++++mffhgcciuy......vtwumaruvwvsfhe.....i.i.+fjl++jl++++++++++++++++++.-+++mmglrmk-ky+++++++++++++++++++++++++++++++++++++++++++++++++++++++++++++++++++++++++
(PID.TID 0000.0001) //      5 p++++++++++++++++++++++s....++++++++++++++++++++++++++++++++++ohjknnnqtn-.....wzztmiqnsuq.........jb-.++jal+jal++++++++++++++++..-+td-mgntsuwk++++++++++++++++++++++++++++++++++++++++++++++++++++++++++++++++++++++++++
(PID.TID 0000.0001) //      4 ++++++++++++++++++++++++cab+++++++++++++++++++++++++++++++++++olntutttrn-b....xwutmpfgej..........nb.-+++a.++a.++++++++++++++++..+ztd-oqrttnqu++++++++++++++++++++++++++++++++++++++++++++++++++++++++++++++++++++++++++
(PID.TID 0000.0001) //      3 ++++++++++++++++++++++++++++++++++++++++++++++++++++++++++++++++++++zuqnji....xtstrsfb............jl.-+++g.++g.+++++++++++++++o..+zwvnotvvnnpx++++++++++++++++++++++++++++++++++++++++++++++++++++++++++++++++++++++++++
(PID.TID 0000.0001) //      2 ++++++++++++++++++++++++++++++++++++++++++++++++++++++++++++++++++++++qpnf....+osuqodb............-l.e+++p.w+p.w++++++++++++++o.++zzpnmouvnnpy++++++++++++++++++++++++++++++++++++++++++++++++++++++++++g++++++-y+++++++
(PID.TID 0000.0001) //      1 ++++++++++++++++++++++++++++++++++++++++++++++++++++++++++++++++++++++zy......u..skc..............-p.cg+jgggjggg++++++++++++++o.++xqpmddiqtrqz+++++++++++++++++++++++++++++++++++++++++++++++++++++++++t-++++++-lkuxyzzq
(PID.TID 0000.0001) //      0 .++++++++++++++++++++++++++++++++++..+++++++++++++++++++++++++++++++++y..f.......je...............muycgvagj..vgag+++++++++++++on++xqnkdbcntu+++..++++++++++++++++++++++++++++++++++..++++++++++++++++++j-++++++.-kuqpq+.
(PID.TID 0000.0001) //     -1 ..++++++++++++++++++++++++++++++++....++++++++++++++++++++++++++++++++............................qu+vl-ag....ja-z+++++++++++uqz+++sijebcntz++....++++++++++++++++++++++++++++++++....+++++++++++++++++j+++++++.-uwnnq..
(PID.TID 0000.0001) // =======================================================
(PID.TID 0000.0001) // END OF FIELD                                          =
(PID.TID 0000.0001) // =======================================================
(PID.TID 0000.0001) 
(PID.TID 0000.0001) 
(PID.TID 0000.0001) // ===================================
(PID.TID 0000.0001) // GAD parameters :
(PID.TID 0000.0001) // ===================================
(PID.TID 0000.0001) tempAdvScheme =   /* Temp. Horiz.Advection scheme selector */
(PID.TID 0000.0001)                       2
(PID.TID 0000.0001)     ;
(PID.TID 0000.0001) tempVertAdvScheme =   /* Temp. Vert. Advection scheme selector */
(PID.TID 0000.0001)                       2
(PID.TID 0000.0001)     ;
(PID.TID 0000.0001) tempMultiDimAdvec =   /* use Muti-Dim Advec method for Temp */
(PID.TID 0000.0001)                   F
(PID.TID 0000.0001)     ;
(PID.TID 0000.0001) tempAdamsBashforth =   /* use Adams-Bashforth time-stepping for Temp */
(PID.TID 0000.0001)                   T
(PID.TID 0000.0001)     ;
[...]
(PID.TID 0000.0001) %MON dynstat_wvel_sd              =   7.9618288216477E-05
(PID.TID 0000.0001) %MON dynstat_wvel_del2            =   2.2847484202579E-05
(PID.TID 0000.0001) %MON dynstat_theta_max            =   4.7070926023943E+02
(PID.TID 0000.0001) %MON dynstat_theta_min            =   2.8523685729912E+02
(PID.TID 0000.0001) %MON dynstat_theta_mean           =   3.1463454501524E+02
(PID.TID 0000.0001) %MON dynstat_theta_sd             =   5.5810220756582E+01
(PID.TID 0000.0001) %MON dynstat_theta_del2           =   5.6490903570210E-04
(PID.TID 0000.0001) %MON dynstat_salt_max             =   0.0000000000000E+00
(PID.TID 0000.0001) %MON dynstat_salt_min             =   0.0000000000000E+00
(PID.TID 0000.0001) %MON dynstat_salt_mean            =   0.0000000000000E+00
(PID.TID 0000.0001) %MON dynstat_salt_sd              =   0.0000000000000E+00
(PID.TID 0000.0001) %MON dynstat_salt_del2            =   0.0000000000000E+00
(PID.TID 0000.0001) %MON advcfl_uvel_max              =   3.4033036495159E-05
(PID.TID 0000.0001) %MON advcfl_vvel_max              =   3.1405682764608E-05
(PID.TID 0000.0001) %MON advcfl_wvel_max              =   6.0876670737980E-05
(PID.TID 0000.0001) %MON advcfl_W_hf_max              =   7.9177000981862E-05
(PID.TID 0000.0001) %MON pe_b_mean                    =   1.9935626592793E-07
(PID.TID 0000.0001) %MON ke_max                       =   2.6552812890357E-04
(PID.TID 0000.0001) %MON ke_mean                      =   2.4735930407698E-06
(PID.TID 0000.0001) %MON ke_vol                       =   4.9185903467998E+19
(PID.TID 0000.0001) %MON vort_r_min                   =  -6.5040404759171E-08
(PID.TID 0000.0001) %MON vort_r_max                   =   6.5541106280865E-08
(PID.TID 0000.0001) %MON vort_a_mean                  =  -4.7692264696805E-08
(PID.TID 0000.0001) %MON vort_a_sd                    =   8.3610548381755E-05
(PID.TID 0000.0001) %MON vort_p_mean                  =  -4.8993851792496E-08
(PID.TID 0000.0001) %MON vort_p_sd                    =   9.1461582895365E-05
(PID.TID 0000.0001) %MON surfExpan_theta_mean         =   1.7929827720654E-04
(PID.TID 0000.0001) %MON surfExpan_salt_mean          =   0.0000000000000E+00
(PID.TID 0000.0001) %MON surfExpan_Heat_mean          =  -2.2744003622048E-02
(PID.TID 0000.0001) %MON En_Budget_T2PE_mean          =   3.3842219238772E-02
(PID.TID 0000.0001) // =======================================================
(PID.TID 0000.0001) // End MONITOR dynamic field statistics
(PID.TID 0000.0001) // =======================================================
  Writing datetime file: NYMD =  20040301 NHMS =  123730
(PID.TID 0000.0001) %CHECKPOINT         5 ckptA
(PID.TID 0000.0001)   Seconds in section "ALL                    [THE_MODEL_MAIN]":
(PID.TID 0000.0001)           User time:  13.1579987
(PID.TID 0000.0001)         System time:  1.36079294
(PID.TID 0000.0001)     Wall clock time:  19.1599531
(PID.TID 0000.0001)          No. starts: 1
(PID.TID 0000.0001)           No. stops: 1
(PID.TID 0000.0001)   Seconds in section "INITIALISE_FIXED       [THE_MODEL_MAIN]":
(PID.TID 0000.0001)           User time:  0.440932988
(PID.TID 0000.0001)         System time:  0.105984003
(PID.TID 0000.0001)     Wall clock time:  0.782402039
(PID.TID 0000.0001)          No. starts: 1
(PID.TID 0000.0001)           No. stops: 1
(PID.TID 0000.0001)   Seconds in section "GRIDALT_INITIALISE  [PACKAGES_INIT_F]":
(PID.TID 0000.0001)           User time:  0.0159970075
(PID.TID 0000.0001)         System time:  0.00100000016
(PID.TID 0000.0001)     Wall clock time:  0.017220974
(PID.TID 0000.0001)          No. starts: 1
(PID.TID 0000.0001)           No. stops: 1
(PID.TID 0000.0001)   Seconds in section "THE_MAIN_LOOP          [THE_MODEL_MAIN]":
(PID.TID 0000.0001)           User time:  11.160303
(PID.TID 0000.0001)         System time:  0.629904009
(PID.TID 0000.0001)     Wall clock time:  12.666846
(PID.TID 0000.0001)          No. starts: 1
(PID.TID 0000.0001)           No. stops: 1
(PID.TID 0000.0001)   Seconds in section "INITIALISE_VARIA    [THE_MAIN_LOOP]":
(PID.TID 0000.0001)           User time:  0.540917009
(PID.TID 0000.0001)         System time:  0.163975008
(PID.TID 0000.0001)     Wall clock time:  0.705040932
(PID.TID 0000.0001)          No. starts: 1
(PID.TID 0000.0001)           No. stops: 1
(PID.TID 0000.0001)   Seconds in section "GRIDALT_UPDATE  [INITIALISE_VARIA]":
(PID.TID 0000.0001)           User time:  0.00399899483
(PID.TID 0000.0001)         System time:  0.00200000405
(PID.TID 0000.0001)     Wall clock time:  0.00686192513
(PID.TID 0000.0001)          No. starts: 1
(PID.TID 0000.0001)           No. stops: 1
(PID.TID 0000.0001)   Seconds in section "MONITOR             [THE_MAIN_LOOP]":
(PID.TID 0000.0001)           User time:  0.191970944
(PID.TID 0000.0001)         System time:  0.
(PID.TID 0000.0001)     Wall clock time:  0.192304134
(PID.TID 0000.0001)          No. starts: 1
(PID.TID 0000.0001)           No. stops: 1
(PID.TID 0000.0001)   Seconds in section "DO_THE_MODEL_IO     [THE_MAIN_LOOP]":
(PID.TID 0000.0001)           User time:  0.243963003
(PID.TID 0000.0001)         System time:  0.169973999
(PID.TID 0000.0001)     Wall clock time:  0.736269951
(PID.TID 0000.0001)          No. starts: 1
(PID.TID 0000.0001)           No. stops: 1
(PID.TID 0000.0001)   Seconds in section "MAIN LOOP           [THE_MAIN_LOOP]":
(PID.TID 0000.0001)           User time:  10.183452
(PID.TID 0000.0001)         System time:  0.295955002
(PID.TID 0000.0001)     Wall clock time:  11.0330451
(PID.TID 0000.0001)          No. starts: 1
(PID.TID 0000.0001)           No. stops: 1
(PID.TID 0000.0001)   Seconds in section "FORWARD_STEP        [THE_MAIN_LOOP]":
(PID.TID 0000.0001)           User time:  10.183452
(PID.TID 0000.0001)         System time:  0.295955002
(PID.TID 0000.0001)     Wall clock time:  11.0328405
(PID.TID 0000.0001)          No. starts: 5
(PID.TID 0000.0001)           No. stops: 5
(PID.TID 0000.0001)   Seconds in section "DO_STATEVARS_DIAGS  [FORWARD_STEP]":
(PID.TID 0000.0001)           User time:  0.00100040436
(PID.TID 0000.0001)         System time:  0.
(PID.TID 0000.0001)     Wall clock time:  0.00134992599
(PID.TID 0000.0001)          No. starts: 10
(PID.TID 0000.0001)           No. stops: 10
(PID.TID 0000.0001)   Seconds in section "EXTERNAL_FIELDS_LOAD[FORWARD_STEP]":
(PID.TID 0000.0001)           User time:  0.
(PID.TID 0000.0001)         System time:  0.
(PID.TID 0000.0001)     Wall clock time:  0.00017619133
(PID.TID 0000.0001)          No. starts: 5
(PID.TID 0000.0001)           No. stops: 5
(PID.TID 0000.0001)   Seconds in section "DO_ATMOSPHERIC_PHYS [FORWARD_STEP]":
(PID.TID 0000.0001)           User time:  2.27665377
(PID.TID 0000.0001)         System time:  0.0159979761
(PID.TID 0000.0001)     Wall clock time:  2.29797721
(PID.TID 0000.0001)          No. starts: 5
(PID.TID 0000.0001)           No. stops: 5
(PID.TID 0000.0001)   Seconds in section "FIZHI          [DO_ATMOSPHERIC_PHYS]":
(PID.TID 0000.0001)           User time:  2.27665377
(PID.TID 0000.0001)         System time:  0.0159979761
(PID.TID 0000.0001)     Wall clock time:  2.29763293
(PID.TID 0000.0001)          No. starts: 5
(PID.TID 0000.0001)           No. stops: 5
(PID.TID 0000.0001)   Seconds in section "DO_FIZHI          [FIZHI_WRAPPER]":
(PID.TID 0000.0001)           User time:  0.921859264
(PID.TID 0000.0001)         System time:  0.
(PID.TID 0000.0001)     Wall clock time:  0.921746969
(PID.TID 0000.0001)          No. starts: 5
(PID.TID 0000.0001)           No. stops: 5
(PID.TID 0000.0001)   Seconds in section "PHYS2DYN          [FIZHI_WRAPPER]":
(PID.TID 0000.0001)           User time:  0.414938331
(PID.TID 0000.0001)         System time:  0.00599899888
(PID.TID 0000.0001)     Wall clock time:  0.425457239
(PID.TID 0000.0001)          No. starts: 5
(PID.TID 0000.0001)           No. stops: 5
(PID.TID 0000.0001)   Seconds in section "ATOC              [FIZHI_WRAPPER]":
(PID.TID 0000.0001)           User time:  0.140977979
(PID.TID 0000.0001)         System time:  0.
(PID.TID 0000.0001)     Wall clock time:  0.143004656
(PID.TID 0000.0001)          No. starts: 5
(PID.TID 0000.0001)           No. stops: 5
(PID.TID 0000.0001)   Seconds in section "EXCHANGES         [FIZHI_WRAPPER]":
(PID.TID 0000.0001)           User time:  0.119982243
(PID.TID 0000.0001)         System time:  0.
(PID.TID 0000.0001)     Wall clock time:  0.118131161
(PID.TID 0000.0001)          No. starts: 5
(PID.TID 0000.0001)           No. stops: 5
(PID.TID 0000.0001)   Seconds in section "DO_OCEANIC_PHYS     [FORWARD_STEP]":
(PID.TID 0000.0001)           User time:  0.0199974775
(PID.TID 0000.0001)         System time:  0.
(PID.TID 0000.0001)     Wall clock time:  0.0195200443
(PID.TID 0000.0001)          No. starts: 5
(PID.TID 0000.0001)           No. stops: 5
(PID.TID 0000.0001)   Seconds in section "DYNAMICS            [FORWARD_STEP]":
(PID.TID 0000.0001)           User time:  1.46177769
(PID.TID 0000.0001)         System time:  0.0029990077
(PID.TID 0000.0001)     Wall clock time:  1.46654916
(PID.TID 0000.0001)          No. starts: 5
(PID.TID 0000.0001)           No. stops: 5
(PID.TID 0000.0001)   Seconds in section "UPDATE_R_STAR      [FORWARD_STEP]":
(PID.TID 0000.0001)           User time:  0.130981684
(PID.TID 0000.0001)         System time:  0.
(PID.TID 0000.0001)     Wall clock time:  0.132690907
(PID.TID 0000.0001)          No. starts: 5
(PID.TID 0000.0001)           No. stops: 5
(PID.TID 0000.0001)   Seconds in section "UPDATE_CG2D        [FORWARD_STEP]":
(PID.TID 0000.0001)           User time:  0.0559916496
(PID.TID 0000.0001)         System time:  0.
(PID.TID 0000.0001)     Wall clock time:  0.0552973747
(PID.TID 0000.0001)          No. starts: 5
(PID.TID 0000.0001)           No. stops: 5
(PID.TID 0000.0001)   Seconds in section "SOLVE_FOR_PRESSURE  [FORWARD_STEP]":
(PID.TID 0000.0001)           User time:  0.305950642
(PID.TID 0000.0001)         System time:  0.
(PID.TID 0000.0001)     Wall clock time:  0.307514906
(PID.TID 0000.0001)          No. starts: 5
(PID.TID 0000.0001)           No. stops: 5
(PID.TID 0000.0001)   Seconds in section "UV_CORRECTION_STEP  [FORWARD_STEP]":
(PID.TID 0000.0001)           User time:  1.05983949
(PID.TID 0000.0001)         System time:  0.00799900293
(PID.TID 0000.0001)     Wall clock time:  1.06985092
(PID.TID 0000.0001)          No. starts: 5
(PID.TID 0000.0001)           No. stops: 5
(PID.TID 0000.0001)   Seconds in section "UPDATE_ETAH        [FORWARD_STEP]":
(PID.TID 0000.0001)           User time:  0.00300002098
(PID.TID 0000.0001)         System time:  0.
(PID.TID 0000.0001)     Wall clock time:  0.00205397606
(PID.TID 0000.0001)          No. starts: 5
(PID.TID 0000.0001)           No. stops: 5
(PID.TID 0000.0001)   Seconds in section "CALC_R_STAR       [FORWARD_STEP]":
(PID.TID 0000.0001)           User time:  0.034995079
(PID.TID 0000.0001)         System time:  0.
(PID.TID 0000.0001)     Wall clock time:  0.0347490311
(PID.TID 0000.0001)          No. starts: 5
(PID.TID 0000.0001)           No. stops: 5
(PID.TID 0000.0001)   Seconds in section "BLOCKING_EXCHANGES  [FORWARD_STEP]":
(PID.TID 0000.0001)           User time:  0.139979124
(PID.TID 0000.0001)         System time:  0.
(PID.TID 0000.0001)     Wall clock time:  0.139308214
(PID.TID 0000.0001)          No. starts: 10
(PID.TID 0000.0001)           No. stops: 10
(PID.TID 0000.0001)   Seconds in section "THERMODYNAMICS      [FORWARD_STEP]":
(PID.TID 0000.0001)           User time:  0.951855659
(PID.TID 0000.0001)         System time:  0.00599899888
(PID.TID 0000.0001)     Wall clock time:  0.958382845
(PID.TID 0000.0001)          No. starts: 5
(PID.TID 0000.0001)           No. stops: 5
(PID.TID 0000.0001)   Seconds in section "TS_CORRECTION_STEP  [FORWARD_STEP]":
(PID.TID 0000.0001)           User time:  0.942856312
(PID.TID 0000.0001)         System time:  0.
(PID.TID 0000.0001)     Wall clock time:  0.945478439
(PID.TID 0000.0001)          No. starts: 5
(PID.TID 0000.0001)           No. stops: 5
(PID.TID 0000.0001)   Seconds in section "FIZHI               [FORWARD_STEP]":
(PID.TID 0000.0001)           User time:  1.50377011
(PID.TID 0000.0001)         System time:  0.0199970007
(PID.TID 0000.0001)     Wall clock time:  1.52380204
(PID.TID 0000.0001)          No. starts: 5
(PID.TID 0000.0001)           No. stops: 5
(PID.TID 0000.0001)   Seconds in section "PHYS2DYN          [STEP_FIZHI_CORR]":
(PID.TID 0000.0001)           User time:  0.403938293
(PID.TID 0000.0001)         System time:  0.00599899888
(PID.TID 0000.0001)     Wall clock time:  0.409775972
(PID.TID 0000.0001)          No. starts: 5
(PID.TID 0000.0001)           No. stops: 5
(PID.TID 0000.0001)   Seconds in section "ATOC              [STEP_FIZHI_CORR]":
(PID.TID 0000.0001)           User time:  0.14197731
(PID.TID 0000.0001)         System time:  0.
(PID.TID 0000.0001)     Wall clock time:  0.141870737
(PID.TID 0000.0001)          No. starts: 5
(PID.TID 0000.0001)           No. stops: 5
(PID.TID 0000.0001)   Seconds in section "CTOA              [STEP_FIZHI_CORR]":
(PID.TID 0000.0001)           User time:  0.155978918
(PID.TID 0000.0001)         System time:  0.
(PID.TID 0000.0001)     Wall clock time:  0.156826973
(PID.TID 0000.0001)          No. starts: 5
(PID.TID 0000.0001)           No. stops: 5
(PID.TID 0000.0001)   Seconds in section "DYN2PHYS          [STEP_FIZHI_CORR]":
(PID.TID 0000.0001)           User time:  0.467927694
(PID.TID 0000.0001)         System time:  0.00799900293
(PID.TID 0000.0001)     Wall clock time:  0.476332903
(PID.TID 0000.0001)          No. starts: 5
(PID.TID 0000.0001)           No. stops: 5
(PID.TID 0000.0001)   Seconds in section "DO_STATEVARS_TAVE   [FORWARD_STEP]":
(PID.TID 0000.0001)           User time:  0.
(PID.TID 0000.0001)         System time:  0.
(PID.TID 0000.0001)     Wall clock time:  0.000173807144
(PID.TID 0000.0001)          No. starts: 5
(PID.TID 0000.0001)           No. stops: 5
(PID.TID 0000.0001)   Seconds in section "MONITOR             [FORWARD_STEP]":
(PID.TID 0000.0001)           User time:  0.959855318
(PID.TID 0000.0001)         System time:  0.00100001693
(PID.TID 0000.0001)     Wall clock time:  0.959411144
(PID.TID 0000.0001)          No. starts: 5
(PID.TID 0000.0001)           No. stops: 5
(PID.TID 0000.0001)   Seconds in section "DO_THE_MODEL_IO     [FORWARD_STEP]":
(PID.TID 0000.0001)           User time:  0.304953575
(PID.TID 0000.0001)         System time:  0.241962999
(PID.TID 0000.0001)     Wall clock time:  1.08932018
(PID.TID 0000.0001)          No. starts: 5
(PID.TID 0000.0001)           No. stops: 5
(PID.TID 0000.0001)   Seconds in section "WRITE_CHECKPOINT    [FORWARD_STEP]":
(PID.TID 0000.0001)           User time:  0.00100040436
(PID.TID 0000.0001)         System time:  0.
(PID.TID 0000.0001)     Wall clock time:  0.000188112259
(PID.TID 0000.0001)          No. starts: 5
(PID.TID 0000.0001)           No. stops: 5
(PID.TID 0000.0001)   Seconds in section "WRITE_CHECKPOINT       [THE_MODEL_MAIN]":
(PID.TID 0000.0001)           User time:  1.5567627
(PID.TID 0000.0001)         System time:  0.624904931
(PID.TID 0000.0001)     Wall clock time:  5.71052694
(PID.TID 0000.0001)          No. starts: 1
(PID.TID 0000.0001)           No. stops: 1
(PID.TID 0000.0001) // ======================================================
(PID.TID 0000.0001) // Tile <-> Tile communication statistics
(PID.TID 0000.0001) // ======================================================
(PID.TID 0000.0001) // o Tile number: 000001
(PID.TID 0000.0001) //         No. X exchanges =              0
(PID.TID 0000.0001) //            Max. X spins =              0
(PID.TID 0000.0001) //            Min. X spins =     1000000000
(PID.TID 0000.0001) //          Total. X spins =              0
(PID.TID 0000.0001) //            Avg. X spins =       0.00E+00
(PID.TID 0000.0001) //         No. Y exchanges =              0
(PID.TID 0000.0001) //            Max. Y spins =              0
(PID.TID 0000.0001) //            Min. Y spins =     1000000000
(PID.TID 0000.0001) //          Total. Y spins =              0
(PID.TID 0000.0001) //            Avg. Y spins =       0.00E+00
(PID.TID 0000.0001) // o Tile number: 000002
(PID.TID 0000.0001) //         No. X exchanges =              0
(PID.TID 0000.0001) //            Max. X spins =              0
(PID.TID 0000.0001) //            Min. X spins =     1000000000
(PID.TID 0000.0001) //          Total. X spins =              0
(PID.TID 0000.0001) //            Avg. X spins =       0.00E+00
(PID.TID 0000.0001) //         No. Y exchanges =              0
(PID.TID 0000.0001) //            Max. Y spins =              0
(PID.TID 0000.0001) //            Min. Y spins =     1000000000
(PID.TID 0000.0001) //          Total. Y spins =              0
(PID.TID 0000.0001) //            Avg. Y spins =       0.00E+00
(PID.TID 0000.0001) // o Tile number: 000003
(PID.TID 0000.0001) //         No. X exchanges =              0
(PID.TID 0000.0001) //            Max. X spins =              0
(PID.TID 0000.0001) //            Min. X spins =     1000000000
(PID.TID 0000.0001) //          Total. X spins =              0
(PID.TID 0000.0001) //            Avg. X spins =       0.00E+00
(PID.TID 0000.0001) //         No. Y exchanges =              0
(PID.TID 0000.0001) //            Max. Y spins =              0
(PID.TID 0000.0001) //            Min. Y spins =     1000000000
(PID.TID 0000.0001) //          Total. Y spins =              0
(PID.TID 0000.0001) //            Avg. Y spins =       0.00E+00
(PID.TID 0000.0001) // o Tile number: 000004
(PID.TID 0000.0001) //         No. X exchanges =              0
(PID.TID 0000.0001) //            Max. X spins =              0
(PID.TID 0000.0001) //            Min. X spins =     1000000000
(PID.TID 0000.0001) //          Total. X spins =              0
(PID.TID 0000.0001) //            Avg. X spins =       0.00E+00
(PID.TID 0000.0001) //         No. Y exchanges =              0
(PID.TID 0000.0001) //            Max. Y spins =              0
(PID.TID 0000.0001) //            Min. Y spins =     1000000000
(PID.TID 0000.0001) //          Total. Y spins =              0
(PID.TID 0000.0001) //            Avg. Y spins =       0.00E+00
(PID.TID 0000.0001) // o Tile number: 000005
(PID.TID 0000.0001) //         No. X exchanges =              0
(PID.TID 0000.0001) //            Max. X spins =              0
(PID.TID 0000.0001) //            Min. X spins =     1000000000
(PID.TID 0000.0001) //          Total. X spins =              0
(PID.TID 0000.0001) //            Avg. X spins =       0.00E+00
(PID.TID 0000.0001) //         No. Y exchanges =              0
(PID.TID 0000.0001) //            Max. Y spins =              0
(PID.TID 0000.0001) //            Min. Y spins =     1000000000
(PID.TID 0000.0001) //          Total. Y spins =              0
(PID.TID 0000.0001) //            Avg. Y spins =       0.00E+00
(PID.TID 0000.0001) // o Tile number: 000006
(PID.TID 0000.0001) //         No. X exchanges =              0
(PID.TID 0000.0001) //            Max. X spins =              0
(PID.TID 0000.0001) //            Min. X spins =     1000000000
(PID.TID 0000.0001) //          Total. X spins =              0
(PID.TID 0000.0001) //            Avg. X spins =       0.00E+00
(PID.TID 0000.0001) //         No. Y exchanges =              0
(PID.TID 0000.0001) //            Max. Y spins =              0
(PID.TID 0000.0001) //            Min. Y spins =     1000000000
(PID.TID 0000.0001) //          Total. Y spins =              0
(PID.TID 0000.0001) //            Avg. Y spins =       0.00E+00
(PID.TID 0000.0001) // o Thread number: 000001
(PID.TID 0000.0001) //            No. barriers =           4346
(PID.TID 0000.0001) //      Max. barrier spins =              1
(PID.TID 0000.0001) //      Min. barrier spins =              1
(PID.TID 0000.0001) //     Total barrier spins =           4346
(PID.TID 0000.0001) //      Avg. barrier spins =       1.00E+00
