(PID.TID 0000.0001) 
(PID.TID 0000.0001) // ======================================================
(PID.TID 0000.0001) //                      MITgcm UV
(PID.TID 0000.0001) //                      =========
(PID.TID 0000.0001) // ======================================================
(PID.TID 0000.0001) // execution environment starting up...
(PID.TID 0000.0001) // Run starting Wed Apr  1 14:19:48 1998
(PID.TID 0000.0001) // on melville.lcs.mit.edu
(PID.TID 0000.0001) // account cnh
(PID.TID 0000.0001) // MITgcm UV Release: $Name:  $
(PID.TID 0000.0001) 
(PID.TID 0000.0001) // =======================================================
(PID.TID 0000.0001) // Execution Environment parameter file "eedata"
(PID.TID 0000.0001) // =======================================================
(PID.TID 0000.0001) ># Example "eedata" file
(PID.TID 0000.0001) ># Lines beginning "#" are comments
(PID.TID 0000.0001) ># nTx - No. threads per process in X
(PID.TID 0000.0001) ># nTy - No. threads per process in Y
(PID.TID 0000.0001) > &EEPARMS
(PID.TID 0000.0001) > nTx=1,nTy=1
(PID.TID 0000.0001) > /
(PID.TID 0000.0001) ># Note: Some systems use & as the
(PID.TID 0000.0001) ># namelist terminator. Other systems
(PID.TID 0000.0001) ># use a / character (as shown here).
(PID.TID 0000.0001) 
(PID.TID 0000.0001) // =======================================================
(PID.TID 0000.0001) // Computational Grid Specification ( see files "SIZE.h" )
(PID.TID 0000.0001) //                                  ( and "eedata"       )
(PID.TID 0000.0001) // =======================================================
(PID.TID 0000.0001)      nPx =    1 ; /* No. processes in X */
(PID.TID 0000.0001)      nPy =    1 ; /* No. processes in Y */
(PID.TID 0000.0001)      nSx =    1 ; /* No. tiles in X per process */
(PID.TID 0000.0001)      nSy =    1 ; /* No. tiles in Y per process */
(PID.TID 0000.0001)      sNx =   90 ; /* Tile size in X */
(PID.TID 0000.0001)      sNy =   40 ; /* Tile size in Y */
(PID.TID 0000.0001)      OLx =    3 ; /* Tile overlap distance in X */
(PID.TID 0000.0001)      OLy =    3 ; /* Tile overlap distance in Y */
(PID.TID 0000.0001)      nTx =    1 ; /* No. threads in X per process */
(PID.TID 0000.0001)      nTy =    1 ; /* No. threads in Y per process */
(PID.TID 0000.0001)       Nr =   15 ; /* No. levels in the vertical   */
(PID.TID 0000.0001)       nX =   90 ; /* Total domain size in X ( = nPx*nSx*sNx ) */
(PID.TID 0000.0001)       nY =   40 ; /* Total domain size in Y ( = nPy*nSy*sNy ) */
(PID.TID 0000.0001)   nTiles =    1 ; /* Total no. tiles per process ( = nSx*nSy ) */
(PID.TID 0000.0001)   nProcs =    1 ; /* Total no. processes ( = nPx*nPy ) */
(PID.TID 0000.0001) nThreads =    1 ; /* Total no. threads per process ( = nTx*nTy ) */
(PID.TID 0000.0001) usingMPI =    F ; /* Flag used to control whether MPI is in use */
(PID.TID 0000.0001)                   /*  note: To execute a program with MPI calls */
(PID.TID 0000.0001)                   /*  it must be launched appropriately e.g     */
(PID.TID 0000.0001)                   /*  "mpirun -np 64 ......"                    */
(PID.TID 0000.0001) 
(PID.TID 0000.0001) // ======================================================
(PID.TID 0000.0001) // Mapping of tiles to threads
(PID.TID 0000.0001) // ======================================================
(PID.TID 0000.0001) // -o- Thread   1, tiles (   1:   1,   1:   1)
(PID.TID 0000.0001) 
(PID.TID 0000.0001) // ======================================================
(PID.TID 0000.0001) // Tile <-> Tile connectvity table
(PID.TID 0000.0001) // ======================================================
(PID.TID 0000.0001) // Tile number: 000001 (process no. = 000001)
(PID.TID 0000.0001) //        WEST: Tile = 000001, Process = 000001, Comm = put
(PID.TID 0000.0001) //                bi = 000001, bj = 000001
(PID.TID 0000.0001) //        EAST: Tile = 000001, Process = 000001, Comm = put
(PID.TID 0000.0001) //                bi = 000001, bj = 000001
(PID.TID 0000.0001) //       SOUTH: Tile = 000001, Process = 000001, Comm = put
(PID.TID 0000.0001) //                bi = 000001, bj = 000001
(PID.TID 0000.0001) //       NORTH: Tile = 000001, Process = 000001, Comm = put
(PID.TID 0000.0001) //                bi = 000001, bj = 000001
(PID.TID 0000.0001) 
(PID.TID 0000.0001) // =======================================================
(PID.TID 0000.0001) // Model parameter file "data"
(PID.TID 0000.0001) // =======================================================
(PID.TID 0000.0001) ># ====================
(PID.TID 0000.0001) ># | Model parameters |
(PID.TID 0000.0001) ># ====================
(PID.TID 0000.0001) >#
(PID.TID 0000.0001) ># Continuous equation parameters
(PID.TID 0000.0001) > &PARM01
(PID.TID 0000.0001) > tRef = 15*20.,
(PID.TID 0000.0001) > sRef = 15*35.,
(PID.TID 0000.0001) > viscAr=1.E-3,
(PID.TID 0000.0001) > viscAh=5.E5,
(PID.TID 0000.0001) > diffKhT=0.0,
(PID.TID 0000.0001) > diffKrT=3.E-5,
(PID.TID 0000.0001) > diffKhS=0.0,
(PID.TID 0000.0001) > diffKrS=3.E-5,
(PID.TID 0000.0001) > rhonil=1035.,
(PID.TID 0000.0001) > gravity=9.81,
(PID.TID 0000.0001) > eosType = 'POLY3',
(PID.TID 0000.0001) > ivdc_kappa=100.,
(PID.TID 0000.0001) > implicitDiffusion=.TRUE.,
(PID.TID 0000.0001) > allowFreezing=.TRUE.,
(PID.TID 0000.0001) > useRealFreshWaterFlux=.TRUE.,
(PID.TID 0000.0001) ># turn on looped cells
(PID.TID 0000.0001) > hFacMin=.05,
(PID.TID 0000.0001) > hFacMindr=50.,
(PID.TID 0000.0001) ># set precision of data files
(PID.TID 0000.0001) > readBinaryPrec=32,
(PID.TID 0000.0001) > &
(PID.TID 0000.0001) >
(PID.TID 0000.0001) ># Elliptic solver parameters
(PID.TID 0000.0001) > &PARM02
(PID.TID 0000.0001) > cg2dMaxIters=500,
(PID.TID 0000.0001) > cg2dTargetResidual=1.E-13,
(PID.TID 0000.0001) > &
(PID.TID 0000.0001) >
(PID.TID 0000.0001) ># Time stepping parameters
(PID.TID 0000.0001) > &PARM03
(PID.TID 0000.0001) > nIter0 =      0,
(PID.TID 0000.0001) > nTimeSteps = 20,
(PID.TID 0000.0001) ># 100 years of integration will yield a reasonable flow field
(PID.TID 0000.0001) ># startTime  =          0.,
(PID.TID 0000.0001) ># endTime    = 3110400000.,
(PID.TID 0000.0001) > deltaTmom = 1200.0,
(PID.TID 0000.0001) > tauCD =     321428.,
(PID.TID 0000.0001) > deltaTtracer= 43200.0,
(PID.TID 0000.0001) > deltaTClock = 43200.0,
(PID.TID 0000.0001) ># if you are using a version later than checkpoint45d on the main branch
(PID.TID 0000.0001) ># you can uncomment the following line and increase the time step
(PID.TID 0000.0001) ># deltaTtracer and deltaTClock to 172800.0 as well to speed up the
(PID.TID 0000.0001) ># asynchronous time stepping
(PID.TID 0000.0001) ># deltaTfreesurf = 172800.0,
(PID.TID 0000.0001) > abEps = 0.1,
(PID.TID 0000.0001) > pChkptFreq= 311040000.,
(PID.TID 0000.0001) > dumpFreq=   311040000.,
(PID.TID 0000.0001) > taveFreq=   311040000.,
(PID.TID 0000.0001) > monitorFreq=31104000.,
(PID.TID 0000.0001) ># 2 months restoring timescale for temperature
(PID.TID 0000.0001) > tauThetaClimRelax =  5184000.0,
(PID.TID 0000.0001) ># 6 months restoring timescale for salinity
(PID.TID 0000.0001) > tauSaltClimRelax = 15552000.0,
(PID.TID 0000.0001) > periodicExternalForcing=.TRUE.,
(PID.TID 0000.0001) > externForcingPeriod=2592000.,
(PID.TID 0000.0001) > externForcingCycle=31104000.,
(PID.TID 0000.0001) > &
(PID.TID 0000.0001) >
(PID.TID 0000.0001) ># Gridding parameters
(PID.TID 0000.0001) > &PARM04
(PID.TID 0000.0001) > usingCartesianGrid=.FALSE.,
(PID.TID 0000.0001) > usingSphericalPolarGrid=.TRUE.,
(PID.TID 0000.0001) > delR= 50., 70., 100., 140., 190.,
(PID.TID 0000.0001) >       240., 290., 340., 390., 440.,
(PID.TID 0000.0001) >       490., 540., 590., 640., 690.,
(PID.TID 0000.0001) > phiMin=-80.,
(PID.TID 0000.0001) > dySpacing=4.,
(PID.TID 0000.0001) > dxSpacing=4.,
(PID.TID 0000.0001) > &
(PID.TID 0000.0001) >
(PID.TID 0000.0001) ># Input datasets
(PID.TID 0000.0001) > &PARM05
(PID.TID 0000.0001) > bathyFile=      'bathymetry.bin',
(PID.TID 0000.0001) > hydrogThetaFile='lev_t.bin',
(PID.TID 0000.0001) > hydrogSaltFile= 'lev_s.bin',
(PID.TID 0000.0001) > zonalWindFile=  'trenberth_taux.bin',
(PID.TID 0000.0001) > meridWindFile=  'trenberth_tauy.bin',
(PID.TID 0000.0001) > thetaClimFile=  'lev_sst.bin',
(PID.TID 0000.0001) > saltClimFile=   'lev_sss.bin',
(PID.TID 0000.0001) > surfQFile=      'ncep_qnet.bin',
(PID.TID 0000.0001) ># fresh water flux is turned off, uncomment next line to turn on
(PID.TID 0000.0001) ># (not recommened together with surface salinity restoring)
(PID.TID 0000.0001) ># EmPmRFile=      'ncep_emp.bin',
(PID.TID 0000.0001) > &
(PID.TID 0000.0001) 
(PID.TID 0000.0001) S/R INI_PARMS ; read PARM01 : OK
(PID.TID 0000.0001) S/R INI_PARMS ; read PARM02 : OK
(PID.TID 0000.0001) S/R INI_PARMS ; read PARM03 : OK
(PID.TID 0000.0001) S/R INI_PARMS ; read PARM04 : OK
(PID.TID 0000.0001) S/R INI_PARMS ; read PARM05 : OK
(PID.TID 0000.0001) %MON XC_max                       =   3.5800000000000E+02
(PID.TID 0000.0001) %MON XC_min                       =   2.0000000000000E+00
(PID.TID 0000.0001) %MON XC_mean                      =   1.8000000000000E+02
(PID.TID 0000.0001) %MON XC_sd                        =   1.0391663325314E+02
(PID.TID 0000.0001) %MON XG_max                       =   3.5600000000000E+02
(PID.TID 0000.0001) %MON XG_min                       =   4.0000000000000E+00
(PID.TID 0000.0001) %MON XG_mean                      =   1.8000000000000E+02
(PID.TID 0000.0001) %MON XG_sd                        =   1.0276186062932E+02
(PID.TID 0000.0001) %MON DXC_max                      =   4.4443898815675E+05
(PID.TID 0000.0001) %MON DXC_min                      =   9.2460385861875E+04
(PID.TID 0000.0001) %MON DXC_mean                     =   3.1372497618153E+05
(PID.TID 0000.0001) %MON DXC_sd                       =   1.1216447457560E+05
(PID.TID 0000.0001) %MON DXF_max                      =   4.4443898815675E+05
(PID.TID 0000.0001) %MON DXF_min                      =   9.2460385861875E+04
(PID.TID 0000.0001) %MON DXF_mean                     =   3.1372497618153E+05
(PID.TID 0000.0001) %MON DXF_sd                       =   1.1216447457560E+05
(PID.TID 0000.0001) %MON DXG_max                      =   4.4470989340816E+05
(PID.TID 0000.0001) %MON DXG_min                      =   7.7223062580781E+04
(PID.TID 0000.0001) %MON DXG_mean                     =   3.1353386340260E+05
(PID.TID 0000.0001) %MON DXG_sd                       =   1.1256651772502E+05
(PID.TID 0000.0001) %MON DXV_max                      =   4.4470989340816E+05
(PID.TID 0000.0001) %MON DXV_min                      =   7.7223062580781E+04
(PID.TID 0000.0001) %MON DXV_mean                     =   3.1353386340260E+05
(PID.TID 0000.0001) %MON DXV_sd                       =   1.1256651772502E+05
(PID.TID 0000.0001) %MON YC_max                       =   7.8000000000000E+01
(PID.TID 0000.0001) %MON YC_min                       =  -7.8000000000000E+01
(PID.TID 0000.0001) %MON YC_mean                      =   0.0000000000000E+00
(PID.TID 0000.0001) %MON YC_sd                        =   4.6173585522461E+01
(PID.TID 0000.0001) %MON YG_max                       =   7.6000000000000E+01
(PID.TID 0000.0001) %MON YG_min                       =  -8.0000000000000E+01
(PID.TID 0000.0001) %MON YG_mean                      =  -2.0512820512821E+00
(PID.TID 0000.0001) %MON YG_sd                        =   4.6760682979564E+01
(PID.TID 0000.0001) %MON DYC_max                      =   4.4470989340816E+05
(PID.TID 0000.0001) %MON DYC_min                      =   4.4470989340816E+05
(PID.TID 0000.0001) %MON DYC_mean                     =   4.4470989340814E+05
(PID.TID 0000.0001) %MON DYC_sd                       =   1.9848812371492E-08
(PID.TID 0000.0001) %MON DYF_max                      =   4.4470989340816E+05
(PID.TID 0000.0001) %MON DYF_min                      =   4.4470989340816E+05
(PID.TID 0000.0001) %MON DYF_mean                     =   4.4470989340814E+05
(PID.TID 0000.0001) %MON DYF_sd                       =   1.9848812371492E-08
(PID.TID 0000.0001) %MON DYG_max                      =   4.4470989340816E+05
(PID.TID 0000.0001) %MON DYG_min                      =   4.4470989340816E+05
(PID.TID 0000.0001) %MON DYG_mean                     =   4.4470989340814E+05
(PID.TID 0000.0001) %MON DYG_sd                       =   1.9848812371492E-08
(PID.TID 0000.0001) %MON DYU_max                      =   4.4470989340816E+05
(PID.TID 0000.0001) %MON DYU_min                      =   4.4470989340816E+05
(PID.TID 0000.0001) %MON DYU_mean                     =   4.4470989340814E+05
(PID.TID 0000.0001) %MON DYU_sd                       =   1.9848812371492E-08
(PID.TID 0000.0001) %MON RA_max                       =   1.9760627980089E+11
(PID.TID 0000.0001) %MON RA_min                       =   4.1109698667291E+10
(PID.TID 0000.0001) %MON RA_mean                      =   1.3948826965197E+11
(PID.TID 0000.0001) %MON RA_sd                        =   4.9870522472902E+10
(PID.TID 0000.0001) %MON RAW_max                      =   1.9760627980089E+11
(PID.TID 0000.0001) %MON RAW_min                      =   4.1109698667291E+10
(PID.TID 0000.0001) %MON RAW_mean                     =   1.3948826965197E+11
(PID.TID 0000.0001) %MON RAW_sd                       =   4.9870522472902E+10
(PID.TID 0000.0001) %MON RAS_max                      =   1.9772672958215E+11
(PID.TID 0000.0001) %MON RAS_min                      =   3.4334886267982E+10
(PID.TID 0000.0001) %MON RAS_mean                     =   1.3940329716694E+11
(PID.TID 0000.0001) %MON RAS_sd                       =   5.0049278732354E+10
(PID.TID 0000.0001) %MON RAZ_max                      =   1.9772672958215E+11
(PID.TID 0000.0001) %MON RAZ_min                      =   3.4334886267982E+10
(PID.TID 0000.0001) %MON RAZ_mean                     =   1.3940329716694E+11
(PID.TID 0000.0001) %MON RAZ_sd                       =   5.0049278732354E+10
(PID.TID 0000.0001)  MDSREADFIELD: opening global file: bathymetry.bin
(PID.TID 0000.0001) // =======================================================
(PID.TID 0000.0001) // Field Model R_low (ini_masks_etc) at iteration          1
(PID.TID 0000.0001) // CMIN =         -5.200000000000000E+03
(PID.TID 0000.0001) // CMAX =         -1.200000000000000E+02
(PID.TID 0000.0001) // CINT =          1.881481481481482E+02
(PID.TID 0000.0001) // SYMBOLS (CMIN->CMAX): -abcdefghijklmnopqrstuvwxyz+
(PID.TID 0000.0001) //                  0.0: .
(PID.TID 0000.0001) // RANGE I (Lo:Hi:Step):(  -2:  93:   1)
(PID.TID 0000.0001) // RANGE J (Lo:Hi:Step):(  43:  -2:  -1)
(PID.TID 0000.0001) // RANGE K (Lo:Hi:Step):(   1:   1:   1)
(PID.TID 0000.0001) // =======================================================
(PID.TID 0000.0001) K =   1
(PID.TID 0000.0001) //                I=7       I=17      I=27      I=37      I=47      I=57      I=67      I=77      I=87
(PID.TID 0000.0001) // |--J--|**0123456|890123456|890123456|890123456|890123456|890123456|890123456|890123456|890123456|890123
(PID.TID 0000.0001) //     43 ................................................................................................
(PID.TID 0000.0001) //     42 .............................................zyxxmgfeeefefgimnpwwwy..+zyy.....yyyyoiiihhz+......
(PID.TID 0000.0001) //     41 ................................................................................................
(PID.TID 0000.0001) //     40 +qlloqz+.++++zzz++++++..................................................................+++qlloq
(PID.TID 0000.0001) //     39 uslloorzzzzzzzzz+...++.....................................................yxxz........+zvuslloo
(PID.TID 0000.0001) //     38 smqpporzzzzzz+++...........................................................zxxy+......zyyvsmqppo
(PID.TID 0000.0001) //     37 smmmuz..................................................................++...zy+...yttyy.+smmmuz
(PID.TID 0000.0001) //     36 yutt+.........................................mm++....................+++++++znmm.yoowssvuyutt+.
(PID.TID 0000.0001) //     35 w++++.................................+zzz..rrmmkk+...+gghn...........+++....+nmiijlsoopuww++++.
(PID.TID 0000.0001) //     34 +.....................................+vvy.ggqyxv+y.ccdffhim..................+nihhikkihhm+.....
(PID.TID 0000.0001) //     33 w+.....................................uuz---h------aaabdefin+.................zqvddflifffw+....
(PID.TID 0000.0001) //     32 m+.....................................+t----h---------acdfgnn................+++gdffkofffm+....
(PID.TID 0000.0001) //     31 m......................................-----ad--------abddegil..............qbaafccdhqqgddm.....
(PID.TID 0000.0001) //     30 i.....................................f----b--b------------abd............zfbb--fbcdosjfddi.....
(PID.TID 0000.0001) //     29 i...................................tu----e---fjg----------abdf...........eaac--abfmijaadgi.....
(PID.TID 0000.0001) //     28 z.................................+xfl-------------------bdedefi.........qbaa---aemfbbaaejz.....
(PID.TID 0000.0001) //     27 .................xx..............+wfgfpf--------eallc---bbbccefgi...+++x.qb-----akfa---ah.......
(PID.TID 0000.0001) //     26 .................xnn...........+vd---dna------a--aicfna---aabdfghku.++xssuy-----bgca---ci.......
(PID.TID 0000.0001) //     25 .................iiik...oo+...+ivd---doaa-bc--ilglf--aa---aabcghhkll...ssum+xaaacjbaabdjk.......
(PID.TID 0000.0001) //     24 ...............xnheeft.kkk+...uii.aagdm----aa-----a-------bbbcdefjljjju.zummwwbbchba--abi.......
(PID.TID 0000.0001) //     23 ...............xgheefp.iikw...uuw..fihi----fed-----eaaa--bbbbcdfflkjiiiq....zykccefa--abd.......
(PID.TID 0000.0001) //     22 quss...........bbelffslffkk...zz.wqkeeqoheccdfa-----egabaabcdddegghliiiqq......xeeehheehccquss..
(PID.TID 0000.0001) //     21 cbbeir........nbbcdjhqdddiiz.....wqfeelgghmedea-----bibbcddddddefghklnqoo........ieeflhgcccbbeir
(PID.TID 0000.0001) //     20 cbbder.......ldcccdgkccccidd......z.vkkktqqhegg----aaacddddddddefghkiiijl.........nhfa--gfcbbder
(PID.TID 0000.0001) //     19 hcdaaf.......kddosggpaaaibbccx...+z+.....r+nlec---agaaabcddccddefikfgffff...........d---cjhcdaaf
(PID.TID 0000.0001) //     18 hd---d.......kglggvliaaaibbcaaeaiv++...qqzolhecccfdgkaabcdfccdeeikgfgffdd+..........d---djhd---d
(PID.TID 0000.0001) //     17 hc---c.......l.feewlfaaaoaa----aiv.....qqnllslmlofcdbaacceffffhhligfigeddj.........hd---ckhc---c
(PID.TID 0000.0001) //     16 gba--c......tn.ddgnlfdaaqa-----lv.......vnllvllnwv--accivomfffhilhgfffeddjf........re--aeigba--c
(PID.TID 0000.0001) //     15 fb--dpz....+ll.ccdfhmdddlc----av.........otsxoomv---abccddfihgijkhgfffeejfff......+fd---ckfb--dp
(PID.TID 0000.0001) //     14 fc--mcl....weeqbaafilkfend--eagy.........hhstofft----aacdheefijkmjhhjijiffff.....zlfdaaadlfc--mc
(PID.TID 0000.0001) //     13 hcclbbg....nccobaaiddgkffqrqeaal.........eeutqfft------aaceeffhijlkjhhigfffq....+jgfodccflhcclbb
(PID.TID 0000.0001) //     12 hhgaaacw+iiicclemhdddfliigfdcaabfaaaz....ccsurqpc--------abcifffikiiihhggff.....kbbbdfffglhhgaaa
(PID.TID 0000.0001) //     11 kgcaaacbbifccennhbbdefnihgfdccaaaa----..dcccnt.ncab-------aabcdfilhggjiggff....l---abcefjlkgcaaa
(PID.TID 0000.0001) //     10 kfcaaccbdaacfrllfbbdegkmmljhfdddba----d.dcccfx.nyrebaba----abcdgilhfeegijgi..+w--aa-abcfilkfcaac
(PID.TID 0000.0001) //      9 lffcdcccaaaoqsolfdeehikihhlllgfedcccccdmdcccf.vyfaaaaaaaa--abdehmjhfeeefglv.++w-----abcdfklffcdc
(PID.TID 0000.0001) //      8 liffjklcaafddffeeccvznkfffhhhlkjifgjkkfeeddfsyvcaaaaaaccdcccdfgjligedbbceg+.++xffn--cfddefliffjk
(PID.TID 0000.0001) //      7 hmqnnbbkkf--bmbaabbgtykfddeffeeddccdfhlffeelfbaaaaaacddeghgjgjlligeddaaabedfiiiiiisvkfkecchmqnnb
(PID.TID 0000.0001) //      6 cca-------------aabcelttdddedddddccccdfkkiiffbaaaabcdgimmkmefecaaabbbaaabbdfiiiiispmmregifcca---
(PID.TID 0000.0001) //      5 --------a-------aaccehhhiddeddddddcccdfiikomodddefffmlmigedccaaaaaaaababbbdfiijsqgeccccbaa------
(PID.TID 0000.0001) //      4 --ahebaabbbbbeihffgijiiiijpywnnpokkomkiiijmmmolkommmgffeeedccaaaaaabbcccefhmz..yjgeccccbaa--aheb
(PID.TID 0000.0001) //      3 gffhhrpjiiwyy............................yxotmjjjjgfeeeeeeddeffffheddeghjkyy..yqjgeddccdbbgffhhr
(PID.TID 0000.0001) //      2 .............................................zyxxmgfeeefefgimnpwwwy..+zyy.....yyyyoiiihhz+......
(PID.TID 0000.0001) //      1 ................................................................................................
(PID.TID 0000.0001) //      0 +qlloqz+.++++zzz++++++..................................................................+++qlloq
(PID.TID 0000.0001) //     -1 uslloorzzzzzzzzz+...++.....................................................yxxz........+zvuslloo
(PID.TID 0000.0001) //     -2 ................................................................................................
(PID.TID 0000.0001) // =======================================================
(PID.TID 0000.0001) // END OF FIELD                                          =
(PID.TID 0000.0001) // =======================================================
(PID.TID 0000.0001) 
(PID.TID 0000.0001) // =======================================================
(PID.TID 0000.0001) // Field Model Ro_surf (ini_masks_etc) at iteration          1
(PID.TID 0000.0001) // CMIN =          1.000000000000000E+32
(PID.TID 0000.0001) // CMAX =         -1.000000000000000E+32
(PID.TID 0000.0001) // CINT =          0.000000000000000E+00
(PID.TID 0000.0001) // SYMBOLS (CMIN->CMAX): -abcdefghijklmnopqrstuvwxyz+
(PID.TID 0000.0001) //                  0.0: .
(PID.TID 0000.0001) // RANGE I (Lo:Hi:Step):(  -2:  93:   1)
(PID.TID 0000.0001) // RANGE J (Lo:Hi:Step):(  43:  -2:  -1)
(PID.TID 0000.0001) // RANGE K (Lo:Hi:Step):(   1:   1:   1)
(PID.TID 0000.0001) // =======================================================
(PID.TID 0000.0001) K =   1
(PID.TID 0000.0001) //                I=7       I=17      I=27      I=37      I=47      I=57      I=67      I=77      I=87
(PID.TID 0000.0001) // |--J--|**0123456|890123456|890123456|890123456|890123456|890123456|890123456|890123456|890123456|890123
(PID.TID 0000.0001) //     43 ................................................................................................
(PID.TID 0000.0001) //     42 ................................................................................................
(PID.TID 0000.0001) //     41 ................................................................................................
(PID.TID 0000.0001) //     40 ................................................................................................
(PID.TID 0000.0001) //     39 ................................................................................................
(PID.TID 0000.0001) //     38 ................................................................................................
(PID.TID 0000.0001) //     37 ................................................................................................
(PID.TID 0000.0001) //     36 ................................................................................................
(PID.TID 0000.0001) //     35 ................................................................................................
(PID.TID 0000.0001) //     34 ................................................................................................
(PID.TID 0000.0001) //     33 ................................................................................................
(PID.TID 0000.0001) //     32 ................................................................................................
(PID.TID 0000.0001) //     31 ................................................................................................
(PID.TID 0000.0001) //     30 ................................................................................................
(PID.TID 0000.0001) //     29 ................................................................................................
(PID.TID 0000.0001) //     28 ................................................................................................
(PID.TID 0000.0001) //     27 ................................................................................................
(PID.TID 0000.0001) //     26 ................................................................................................
(PID.TID 0000.0001) //     25 ................................................................................................
(PID.TID 0000.0001) //     24 ................................................................................................
(PID.TID 0000.0001) //     23 ................................................................................................
(PID.TID 0000.0001) //     22 ................................................................................................
(PID.TID 0000.0001) //     21 ................................................................................................
(PID.TID 0000.0001) //     20 ................................................................................................
(PID.TID 0000.0001) //     19 ................................................................................................
(PID.TID 0000.0001) //     18 ................................................................................................
(PID.TID 0000.0001) //     17 ................................................................................................
(PID.TID 0000.0001) //     16 ................................................................................................
(PID.TID 0000.0001) //     15 ................................................................................................
(PID.TID 0000.0001) //     14 ................................................................................................
(PID.TID 0000.0001) //     13 ................................................................................................
(PID.TID 0000.0001) //     12 ................................................................................................
(PID.TID 0000.0001) //     11 ................................................................................................
(PID.TID 0000.0001) //     10 ................................................................................................
(PID.TID 0000.0001) //      9 ................................................................................................
(PID.TID 0000.0001) //      8 ................................................................................................
(PID.TID 0000.0001) //      7 ................................................................................................
(PID.TID 0000.0001) //      6 ................................................................................................
(PID.TID 0000.0001) //      5 ................................................................................................
(PID.TID 0000.0001) //      4 ................................................................................................
(PID.TID 0000.0001) //      3 ................................................................................................
(PID.TID 0000.0001) //      2 ................................................................................................
(PID.TID 0000.0001) //      1 ................................................................................................
(PID.TID 0000.0001) //      0 ................................................................................................
(PID.TID 0000.0001) //     -1 ................................................................................................
(PID.TID 0000.0001) //     -2 ................................................................................................
(PID.TID 0000.0001) // =======================================================
(PID.TID 0000.0001) // END OF FIELD                                          =
(PID.TID 0000.0001) // =======================================================
(PID.TID 0000.0001) 
(PID.TID 0000.0001) // =======================================================
(PID.TID 0000.0001) // Field hFacC at iteration          1
(PID.TID 0000.0001) // CMIN =          1.000000000000000E+00
(PID.TID 0000.0001) // CMAX =          1.000000000000000E+00
(PID.TID 0000.0001) // CINT =          0.000000000000000E+00
(PID.TID 0000.0001) // SYMBOLS (CMIN->CMAX): -abcdefghijklmnopqrstuvwxyz+
(PID.TID 0000.0001) //                  0.0: .
(PID.TID 0000.0001) // RANGE I (Lo:Hi:Step):(  -2:  93:   1)
(PID.TID 0000.0001) // RANGE J (Lo:Hi:Step):(  43:  -2:  -1)
(PID.TID 0000.0001) // RANGE K (Lo:Hi:Step):(   1:   1:   1)
(PID.TID 0000.0001) // =======================================================
(PID.TID 0000.0001) K =   1
(PID.TID 0000.0001) //                I=7       I=17      I=27      I=37      I=47      I=57      I=67      I=77      I=87
(PID.TID 0000.0001) // |--J--|**0123456|890123456|890123456|890123456|890123456|890123456|890123456|890123456|890123456|890123
(PID.TID 0000.0001) //     43 ................................................................................................
(PID.TID 0000.0001) //     42 .............................................----------------------..----.....------------......
(PID.TID 0000.0001) //     41 ................................................................................................
(PID.TID 0000.0001) //     40 --------.-------------..................................................................--------
(PID.TID 0000.0001) //     39 -----------------...--.....................................................----........---------
(PID.TID 0000.0001) //     38 ----------------...........................................................-----......----------
(PID.TID 0000.0001) //     37 ------..................................................................--...---...-----.-------
(PID.TID 0000.0001) //     36 -----.........................................----....................-----------.-------------.
(PID.TID 0000.0001) //     35 -----.................................----..-------...-----...........---....------------------.
(PID.TID 0000.0001) //     34 -.....................................----.--------.--------..................-------------.....
(PID.TID 0000.0001) //     33 --.....................................-----------------------.................-------------....
(PID.TID 0000.0001) //     32 --.....................................-----------------------................--------------....
(PID.TID 0000.0001) //     31 -......................................-----------------------..............---------------.....
(PID.TID 0000.0001) //     30 -.....................................------------------------............-----------------.....
(PID.TID 0000.0001) //     29 -...................................---------------------------...........-----------------.....
(PID.TID 0000.0001) //     28 -.................................------------------------------.........------------------.....
(PID.TID 0000.0001) //     27 .................--..............--------------------------------...----.----------------.......
(PID.TID 0000.0001) //     26 .................---...........------------------------------------.---------------------.......
(PID.TID 0000.0001) //     25 .................----...---...--------------------------------------...------------------.......
(PID.TID 0000.0001) //     24 ...............-------.----...---.-------------------------------------.-----------------.......
(PID.TID 0000.0001) //     23 ...............-------.----...---..-------------------------------------....-------------.......
(PID.TID 0000.0001) //     22 ----...........------------...--.----------------------------------------......---------------..
(PID.TID 0000.0001) //     21 ------........--------------.....----------------------------------------........---------------
(PID.TID 0000.0001) //     20 ------.......---------------......-.-------------------------------------.........--------------
(PID.TID 0000.0001) //     19 ------.......-----------------...---.....--------------------------------...........------------
(PID.TID 0000.0001) //     18 ------.......-----------------------...-----------------------------------..........------------
(PID.TID 0000.0001) //     17 ------.......-.-------------------.....-----------------------------------.........-------------
(PID.TID 0000.0001) //     16 ------......--.------------------.......-----------------------------------........-------------
(PID.TID 0000.0001) //     15 -------....---.-----------------.........-----------------------------------......--------------
(PID.TID 0000.0001) //     14 -------....---------------------.........-----------------------------------.....---------------
(PID.TID 0000.0001) //     13 -------....---------------------.........-----------------------------------....----------------
(PID.TID 0000.0001) //     12 -------------------------------------....----------------------------------.....----------------
(PID.TID 0000.0001) //     11 --------------------------------------..------.----------------------------....-----------------
(PID.TID 0000.0001) //     10 ---------------------------------------.------.----------------------------..-------------------
(PID.TID 0000.0001) //      9 ---------------------------------------------.-----------------------------.--------------------
(PID.TID 0000.0001) //      8 ---------------------------------------------------------------------------.--------------------
(PID.TID 0000.0001) //      7 ------------------------------------------------------------------------------------------------
(PID.TID 0000.0001) //      6 ------------------------------------------------------------------------------------------------
(PID.TID 0000.0001) //      5 ------------------------------------------------------------------------------------------------
(PID.TID 0000.0001) //      4 -----------------------------------------------------------------------------..-----------------
(PID.TID 0000.0001) //      3 -------------............................-----------------------------------..------------------
(PID.TID 0000.0001) //      2 .............................................----------------------..----.....------------......
(PID.TID 0000.0001) //      1 ................................................................................................
(PID.TID 0000.0001) //      0 --------.-------------..................................................................--------
(PID.TID 0000.0001) //     -1 -----------------...--.....................................................----........---------
(PID.TID 0000.0001) //     -2 ................................................................................................
(PID.TID 0000.0001) // =======================================================
(PID.TID 0000.0001) // END OF FIELD                                          =
(PID.TID 0000.0001) // =======================================================
(PID.TID 0000.0001) 
(PID.TID 0000.0001) // =======================================================
(PID.TID 0000.0001) // Field hFacW at iteration          1
(PID.TID 0000.0001) // CMIN =          1.000000000000000E+00
(PID.TID 0000.0001) // CMAX =          1.000000000000000E+00
(PID.TID 0000.0001) // CINT =          0.000000000000000E+00
(PID.TID 0000.0001) // SYMBOLS (CMIN->CMAX): -abcdefghijklmnopqrstuvwxyz+
(PID.TID 0000.0001) //                  0.0: .
(PID.TID 0000.0001) // RANGE I (Lo:Hi:Step):(  -2:  93:   1)
(PID.TID 0000.0001) // RANGE J (Lo:Hi:Step):(  43:  -2:  -1)
(PID.TID 0000.0001) // RANGE K (Lo:Hi:Step):(   1:   1:   1)
(PID.TID 0000.0001) // =======================================================
(PID.TID 0000.0001) K =   1
(PID.TID 0000.0001) //                I=7       I=17      I=27      I=37      I=47      I=57      I=67      I=77      I=87
(PID.TID 0000.0001) // |--J--|**0123456|890123456|890123456|890123456|890123456|890123456|890123456|890123456|890123456|890123
(PID.TID 0000.0001) //     43 -------------.............................----------------------------------...-----------------
(PID.TID 0000.0001) //     42 ..............................................---------------------...---......-----------......
(PID.TID 0000.0001) //     41 ................................................................................................
(PID.TID 0000.0001) //     40 --------..------------...................................................................-------
(PID.TID 0000.0001) //     39 -----------------....-......................................................---.........--------
(PID.TID 0000.0001) //     38 ----------------............................................................----.......---------
(PID.TID 0000.0001) //     37 ------...................................................................-....--....----..------
(PID.TID 0000.0001) //     36 -----..........................................---.....................----------..------------.
(PID.TID 0000.0001) //     35 -----..................................---...------....----............--.....-----------------.
(PID.TID 0000.0001) //     34 -......................................---..-------..-------...................------------.....
(PID.TID 0000.0001) //     33 --......................................----------------------..................------------....
(PID.TID 0000.0001) //     32 --......................................----------------------.................-------------....
(PID.TID 0000.0001) //     31 -.......................................----------------------...............--------------.....
(PID.TID 0000.0001) //     30 -......................................-----------------------.............----------------.....
(PID.TID 0000.0001) //     29 -....................................--------------------------............----------------.....
(PID.TID 0000.0001) //     28 -..................................-----------------------------..........-----------------.....
(PID.TID 0000.0001) //     27 ..................-...............-------------------------------....---..---------------.......
(PID.TID 0000.0001) //     26 ..................--............-----------------------------------..--------------------.......
(PID.TID 0000.0001) //     25 ..................---....--....-------------------------------------....-----------------.......
(PID.TID 0000.0001) //     24 ................------..---....--..------------------------------------..----------------.......
(PID.TID 0000.0001) //     23 ................------..---....--...------------------------------------.....------------.......
(PID.TID 0000.0001) //     22 ----............-----------....-..---------------------------------------.......--------------..
(PID.TID 0000.0001) //     21 ------.........-------------......---------------------------------------.........--------------
(PID.TID 0000.0001) //     20 ------........--------------.........------------------------------------..........-------------
(PID.TID 0000.0001) //     19 ------........----------------....--......-------------------------------............-----------
(PID.TID 0000.0001) //     18 ------........----------------------....----------------------------------...........-----------
(PID.TID 0000.0001) //     17 ------..........------------------......----------------------------------..........------------
(PID.TID 0000.0001) //     16 ------.......-..-----------------........----------------------------------.........------------
(PID.TID 0000.0001) //     15 -------.....--..----------------..........----------------------------------.......-------------
(PID.TID 0000.0001) //     14 -------.....--------------------..........----------------------------------......--------------
(PID.TID 0000.0001) //     13 -------.....--------------------..........----------------------------------.....---------------
(PID.TID 0000.0001) //     12 -------------------------------------.....---------------------------------......---------------
(PID.TID 0000.0001) //     11 --------------------------------------...-----..---------------------------.....----------------
(PID.TID 0000.0001) //     10 ---------------------------------------..-----..---------------------------...------------------
(PID.TID 0000.0001) //      9 ---------------------------------------------..----------------------------..-------------------
(PID.TID 0000.0001) //      8 ---------------------------------------------------------------------------..-------------------
(PID.TID 0000.0001) //      7 ------------------------------------------------------------------------------------------------
(PID.TID 0000.0001) //      6 ------------------------------------------------------------------------------------------------
(PID.TID 0000.0001) //      5 ------------------------------------------------------------------------------------------------
(PID.TID 0000.0001) //      4 -----------------------------------------------------------------------------...----------------
(PID.TID 0000.0001) //      3 -------------.............................----------------------------------...-----------------
(PID.TID 0000.0001) //      2 ..............................................---------------------...---......-----------......
(PID.TID 0000.0001) //      1 ................................................................................................
(PID.TID 0000.0001) //      0 --------..------------...................................................................-------
(PID.TID 0000.0001) //     -1 -----------------....-......................................................---.........--------
(PID.TID 0000.0001) //     -2 ----------------............................................................----.......---------
(PID.TID 0000.0001) // =======================================================
(PID.TID 0000.0001) // END OF FIELD                                          =
(PID.TID 0000.0001) // =======================================================
(PID.TID 0000.0001) 
(PID.TID 0000.0001) // =======================================================
(PID.TID 0000.0001) // Field hFacS at iteration          1
(PID.TID 0000.0001) // CMIN =          1.000000000000000E+00
(PID.TID 0000.0001) // CMAX =          1.000000000000000E+00
(PID.TID 0000.0001) // CINT =          0.000000000000000E+00
(PID.TID 0000.0001) // SYMBOLS (CMIN->CMAX): -abcdefghijklmnopqrstuvwxyz+
(PID.TID 0000.0001) //                  0.0: .
(PID.TID 0000.0001) // RANGE I (Lo:Hi:Step):(  -2:  93:   1)
(PID.TID 0000.0001) // RANGE J (Lo:Hi:Step):(  43:  -2:  -1)
(PID.TID 0000.0001) // RANGE K (Lo:Hi:Step):(   1:   1:   1)
(PID.TID 0000.0001) // =======================================================
(PID.TID 0000.0001) K =   1
(PID.TID 0000.0001) //                I=7       I=17      I=27      I=37      I=47      I=57      I=67      I=77      I=87
(PID.TID 0000.0001) // |--J--|**0123456|890123456|890123456|890123456|890123456|890123456|890123456|890123456|890123456|890123
(PID.TID 0000.0001) //     43 .............................................----------------------..----.....------------......
(PID.TID 0000.0001) //     42 ................................................................................................
(PID.TID 0000.0001) //     41 ................................................................................................
(PID.TID 0000.0001) //     40 --------.--------...--..................................................................--------
(PID.TID 0000.0001) //     39 ----------------...........................................................----........---------
(PID.TID 0000.0001) //     38 ------.......................................................................---......--.-------
(PID.TID 0000.0001) //     37 -----...................................................................--...---...-----.------.
(PID.TID 0000.0001) //     36 -----.........................................----....................---....----.-------------.
(PID.TID 0000.0001) //     35 -.....................................----..-------...-----...................-------------.....
(PID.TID 0000.0001) //     34 -......................................---.--------.--------...................------------.....
(PID.TID 0000.0001) //     33 --.....................................-----------------------.................-------------....
(PID.TID 0000.0001) //     32 -......................................-----------------------................-------------.....
(PID.TID 0000.0001) //     31 -......................................-----------------------..............---------------.....
(PID.TID 0000.0001) //     30 -.....................................------------------------............-----------------.....
(PID.TID 0000.0001) //     29 -...................................---------------------------...........-----------------.....
(PID.TID 0000.0001) //     28 ..................................------------------------------.........----------------.......
(PID.TID 0000.0001) //     27 .................--..............--------------------------------...----.----------------.......
(PID.TID 0000.0001) //     26 .................---...........------------------------------------....------------------.......
(PID.TID 0000.0001) //     25 .................----...---...---.----------------------------------....-----------------.......
(PID.TID 0000.0001) //     24 ...............-------.----...---..------------------------------------.....-------------.......
(PID.TID 0000.0001) //     23 ...............-------.----...--...-------------------------------------.......----------.......
(PID.TID 0000.0001) //     22 ----...........------------......----------------------------------------........-------------..
(PID.TID 0000.0001) //     21 ------........--------------......-.-------------------------------------.........--------------
(PID.TID 0000.0001) //     20 ------.......---------------......-......--------------------------------...........------------
(PID.TID 0000.0001) //     19 ------.......-----------------...---.....--------------------------------...........------------
(PID.TID 0000.0001) //     18 ------.......-.-------------------.....-----------------------------------..........------------
(PID.TID 0000.0001) //     17 ------.......-.------------------.......----------------------------------.........-------------
(PID.TID 0000.0001) //     16 ------......--.-----------------.........----------------------------------........-------------
(PID.TID 0000.0001) //     15 -------....---.-----------------.........-----------------------------------......--------------
(PID.TID 0000.0001) //     14 -------....---------------------.........-----------------------------------.....---------------
(PID.TID 0000.0001) //     13 -------....---------------------.........----------------------------------.....----------------
(PID.TID 0000.0001) //     12 -------------------------------------....-----.----------------------------.....----------------
(PID.TID 0000.0001) //     11 --------------------------------------..------.----------------------------....-----------------
(PID.TID 0000.0001) //     10 ---------------------------------------.-----..----------------------------..-------------------
(PID.TID 0000.0001) //      9 ---------------------------------------------.-----------------------------.--------------------
(PID.TID 0000.0001) //      8 ---------------------------------------------------------------------------.--------------------
(PID.TID 0000.0001) //      7 ------------------------------------------------------------------------------------------------
(PID.TID 0000.0001) //      6 ------------------------------------------------------------------------------------------------
(PID.TID 0000.0001) //      5 -----------------------------------------------------------------------------..-----------------
(PID.TID 0000.0001) //      4 -------------............................-----------------------------------...-----------------
(PID.TID 0000.0001) //      3 .............................................----------------------..----.....------------......
(PID.TID 0000.0001) //      2 ................................................................................................
(PID.TID 0000.0001) //      1 ................................................................................................
(PID.TID 0000.0001) //      0 --------.--------...--..................................................................--------
(PID.TID 0000.0001) //     -1 ----------------...........................................................----........---------
(PID.TID 0000.0001) //     -2 ................................................................................................
(PID.TID 0000.0001) // =======================================================
(PID.TID 0000.0001) // END OF FIELD                                          =
(PID.TID 0000.0001) // =======================================================
(PID.TID 0000.0001) 
(PID.TID 0000.0001) %MON fCori_max                    =   1.4226580169407E-04
(PID.TID 0000.0001) %MON fCori_min                    =  -1.4226580169407E-04
(PID.TID 0000.0001) %MON fCori_mean                   =   7.5291817533716E-23
(PID.TID 0000.0001) %MON fCori_sd                     =   9.6335367303778E-05
(PID.TID 0000.0001) %MON fCoriG_max                   =   1.4112379284621E-04
(PID.TID 0000.0001) %MON fCoriG_min                   =  -1.4323448157692E-04
(PID.TID 0000.0001) %MON fCoriG_mean                  =  -3.6726790147928E-06
(PID.TID 0000.0001) %MON fCoriG_sd                    =   9.7510077443652E-05
(PID.TID 0000.0001)  PACKAGES_BOOT: opening data.pkg
(PID.TID 0000.0001)  OPEN_COPY_DATA_FILE: opening file data.pkg
(PID.TID 0000.0001) // =======================================================
(PID.TID 0000.0001) // Parameter file "data.pkg"
(PID.TID 0000.0001) // =======================================================
(PID.TID 0000.0001) ># Packages
(PID.TID 0000.0001) > &PACKAGES
(PID.TID 0000.0001) > useGMRedi=.TRUE.,
(PID.TID 0000.0001) ># use genmake with  -enable=ptracers  before uncommenting this line.
(PID.TID 0000.0001) >#usePTRACERS=.TRUE.,
(PID.TID 0000.0001) > &
(PID.TID 0000.0001) >
(PID.TID 0000.0001) 
(PID.TID 0000.0001)  PACKAGES_BOOT: finished reading data.pkg
(PID.TID 0000.0001)  GM_READPARMS: opening data.gmredi
(PID.TID 0000.0001)  OPEN_COPY_DATA_FILE: opening file data.gmredi
(PID.TID 0000.0001) // =======================================================
(PID.TID 0000.0001) // Parameter file "data.gmredi"
(PID.TID 0000.0001) // =======================================================
(PID.TID 0000.0001) ># GM+Redi package parameters:
(PID.TID 0000.0001) >
(PID.TID 0000.0001) >#-from MOM :
(PID.TID 0000.0001) ># GM_background_K: 	G & Mc.W  diffusion coefficient
(PID.TID 0000.0001) ># GM_maxSlope    :	max slope of isopycnals
(PID.TID 0000.0001) ># GM_Scrit       :	transition for scaling diffusion coefficient
(PID.TID 0000.0001) ># GM_Sd          :	half width scaling for diffusion coefficient
(PID.TID 0000.0001) ># GM_taper_scheme:	slope clipping or one of the tapering schemes
(PID.TID 0000.0001) ># GM_Kmin_horiz  :	horizontal diffusion minimum value
(PID.TID 0000.0001) >
(PID.TID 0000.0001) >#-Option parameters (needs to "define" options in GMREDI_OPTIONS.h")
(PID.TID 0000.0001) ># GM_isopycK     :	isopycnal diffusion coefficient (default=GM_background_K)
(PID.TID 0000.0001) ># GM_AdvForm     :	turn on GM Advective form       (default=Skew flux form)
(PID.TID 0000.0001) >
(PID.TID 0000.0001) > &GM_PARM01
(PID.TID 0000.0001) >  GM_background_K    = 1.e+3,
(PID.TID 0000.0001) >  GM_taper_scheme    = 'gkw91',
(PID.TID 0000.0001) >  GM_maxSlope        = 1.e-2,
(PID.TID 0000.0001) >  GM_Kmin_horiz      = 50.,
(PID.TID 0000.0001) >  GM_Scrit           = 4.e-3,
(PID.TID 0000.0001) >  GM_Sd              = 1.e-3,
(PID.TID 0000.0001) ># GM_Visbeck_alpha   = 0.,
(PID.TID 0000.0001) ># GM_Visbeck_length  = 2.e+5,
(PID.TID 0000.0001) ># GM_Visbeck_depth   = 1.e+3,
(PID.TID 0000.0001) ># GM_Visbeck_maxval_K= 2.5e+3,
(PID.TID 0000.0001) > &end
(PID.TID 0000.0001) >
(PID.TID 0000.0001) >
(PID.TID 0000.0001) 
(PID.TID 0000.0001)  GM_READPARMS: finished reading data.gmredi
(PID.TID 0000.0001) GMREDI_CHECK: #define GMREDI
(PID.TID 0000.0001) GM_AdvForm =  /* if FALSE => use SkewFlux Form */
(PID.TID 0000.0001)                   F
(PID.TID 0000.0001)     ;
(PID.TID 0000.0001) GM_AdvSeparate = /* Calc Bolus & Euler Adv. separately */
(PID.TID 0000.0001)                   F
(PID.TID 0000.0001)     ;
(PID.TID 0000.0001) GM_ExtraDiag =  /* Tensor Extra Diag (line 1&2) non 0 */
(PID.TID 0000.0001)                   F
(PID.TID 0000.0001)     ;
(PID.TID 0000.0001) GM_isopycK =   /* Background Isopyc. Diffusivity ( m^2/s ) */
(PID.TID 0000.0001)                 1.000000000000000E+03
(PID.TID 0000.0001)     ;
(PID.TID 0000.0001)  GM_skewflx*K =   /* Background GM_SkewFlx Diffusivity ( m^2/s ) */
(PID.TID 0000.0001)                 1.000000000000000E+03
(PID.TID 0000.0001)     ;
(PID.TID 0000.0001)  GM_advec*K =   /* Backg. GM-Advec(=Bolus) Diffusivity ( m^2/s ) */
(PID.TID 0000.0001)                 0.000000000000000E+00
(PID.TID 0000.0001)     ;
(PID.TID 0000.0001)  GM_Visbeck_alpha =   /* Visbeck alpha coeff. ( ) */
(PID.TID 0000.0001)                 0.000000000000000E+00
(PID.TID 0000.0001)     ;
(PID.TID 0000.0001)  Tapering/Cliping : gkw91
(PID.TID 0000.0001) 
(PID.TID 0000.0001) // ===================================
(PID.TID 0000.0001) // GAD parameters :
(PID.TID 0000.0001) // ===================================
(PID.TID 0000.0001) tempAdvScheme =   /* Temp. advection scheme selector */
(PID.TID 0000.0001)                       2
(PID.TID 0000.0001)     ;
(PID.TID 0000.0001) tempMultiDimAdvec =   /* use Muti-Dim Advec method for Temp */
(PID.TID 0000.0001)                   F
(PID.TID 0000.0001)     ;
(PID.TID 0000.0001) tempAdamsBashforth =   /* use Adams-Bashforth time-stepping for Temp */
(PID.TID 0000.0001)                   T
(PID.TID 0000.0001)     ;
(PID.TID 0000.0001) saltAdvScheme =   /* Salt. advection scheme selector */
(PID.TID 0000.0001)                       2
(PID.TID 0000.0001)     ;
(PID.TID 0000.0001) saltMultiDimAdvec =   /* use Muti-Dim Advec method for Salt */
(PID.TID 0000.0001)                   F
(PID.TID 0000.0001)     ;
(PID.TID 0000.0001) saltAdamsBashforth =   /* use Adams-Bashforth time-stepping for Salt */
(PID.TID 0000.0001)                   T
(PID.TID 0000.0001)     ;
(PID.TID 0000.0001) // ===================================
(PID.TID 0000.0001) // CG2D normalisation factor =          0.6568267742571170272718184E-04
(PID.TID 0000.0001) 
(PID.TID 0000.0001) CONFIG_CHECK: OK
(PID.TID 0000.0001) // =======================================================
(PID.TID 0000.0001) // Model configuration
(PID.TID 0000.0001) // =======================================================
(PID.TID 0000.0001) //
(PID.TID 0000.0001) // "Physical" paramters ( PARM01 in namelist )
(PID.TID 0000.0001) //
(PID.TID 0000.0001) tRef =   /* Reference temperature profile ( oC or oK ) */
(PID.TID 0000.0001)    15 @  2.000000000000000E+01              /* K =  1: 15 */
(PID.TID 0000.0001)     ;
(PID.TID 0000.0001) sRef =   /* Reference salinity profile ( ppt ) */
(PID.TID 0000.0001)    15 @  3.500000000000000E+01              /* K =  1: 15 */
(PID.TID 0000.0001)     ;
(PID.TID 0000.0001) viscAh =   /* Lateral eddy viscosity ( m^2/s ) */
(PID.TID 0000.0001)                 5.000000000000000E+05
(PID.TID 0000.0001)     ;
(PID.TID 0000.0001) viscAh =   /* Lateral biharmonic viscosity ( m^4/s ) */
(PID.TID 0000.0001)                 0.000000000000000E+00
(PID.TID 0000.0001)     ;
(PID.TID 0000.0001) no_slip_sides =  /* Viscous BCs: No-slip sides */
(PID.TID 0000.0001)                   T
(PID.TID 0000.0001)     ;
(PID.TID 0000.0001) viscAr =   /* Vertical eddy viscosity ( units of r^2/s ) */
(PID.TID 0000.0001)                 1.000000000000000E-03
(PID.TID 0000.0001)     ;
(PID.TID 0000.0001) diffKhT =   /* Laplacian diffusion of heat laterally ( m^2/s ) */
(PID.TID 0000.0001)                 0.000000000000000E+00
(PID.TID 0000.0001)     ;
(PID.TID 0000.0001) diffK4T =   /* Bihaarmonic diffusion of heat laterally ( m^4/s ) */
(PID.TID 0000.0001)                 0.000000000000000E+00
(PID.TID 0000.0001)     ;
(PID.TID 0000.0001) diffKzT =   /* Laplacian diffusion of heat vertically ( m^2/s ) */
(PID.TID 0000.0001)                 1.234567000000000E+05
(PID.TID 0000.0001)     ;
(PID.TID 0000.0001) diffKrT =   /* Laplacian diffusion of heat vertically ( m^2/s ) */
(PID.TID 0000.0001)                 3.000000000000000E-05
(PID.TID 0000.0001)     ;
(PID.TID 0000.0001) diffKhS =   /* Laplacian diffusion of salt laterally ( m^2/s ) */
(PID.TID 0000.0001)                 0.000000000000000E+00
(PID.TID 0000.0001)     ;
(PID.TID 0000.0001) diffK4S =   /* Bihaarmonic diffusion of salt laterally ( m^4/s ) */
(PID.TID 0000.0001)                 0.000000000000000E+00
(PID.TID 0000.0001)     ;
(PID.TID 0000.0001) diffKzS =   /* Laplacian diffusion of salt vertically ( m^2/s ) */
(PID.TID 0000.0001)                 1.234567000000000E+05
(PID.TID 0000.0001)     ;
(PID.TID 0000.0001) diffKrS =   /* Laplacian diffusion of salt vertically ( m^2/s ) */
(PID.TID 0000.0001)                 3.000000000000000E-05
(PID.TID 0000.0001)     ;
(PID.TID 0000.0001) tAlpha =   /* Linear EOS thermal expansion coefficient ( 1/degree ) */
(PID.TID 0000.0001)                 1.234567000000000E+05
(PID.TID 0000.0001)     ;
(PID.TID 0000.0001) sBeta =   /* Linear EOS haline contraction coefficient ( 1/ppt ) */
(PID.TID 0000.0001)                 1.234567000000000E+05
(PID.TID 0000.0001)     ;
(PID.TID 0000.0001)   1  13.497  32.600  24.548  -0.202   0.773  -0.005  -0.002   0.000   0.000   0.000   0.000   0.000
(PID.TID 0000.0001)   2  13.488  32.600  24.819  -0.204   0.773  -0.005  -0.002   0.000   0.000   0.000   0.000   0.000
(PID.TID 0000.0001)   3  13.476  32.600  25.201  -0.205   0.772  -0.005  -0.002   0.000   0.000   0.000   0.000   0.000
(PID.TID 0000.0001)   4   8.469  35.150  28.642  -0.163   0.784  -0.005  -0.002   0.000   0.000   0.000   0.000   0.000
(PID.TID 0000.0001)   5   8.451  35.150  29.393  -0.167   0.782  -0.005  -0.002   0.000   0.000   0.000   0.000   0.000
(PID.TID 0000.0001)   6   5.940  34.900  30.563  -0.144   0.786  -0.005  -0.002  -0.001   0.000   0.000   0.000   0.000
(PID.TID 0000.0001)   7   4.425  34.900  31.985  -0.134   0.788  -0.005  -0.003   0.000   0.000   0.000   0.000   0.000
(PID.TID 0000.0001)   8   2.911  34.750  33.505  -0.125   0.789  -0.006  -0.003   0.000   0.000   0.000   0.000   0.000
(PID.TID 0000.0001)   9   1.893  34.800  35.341  -0.123   0.789  -0.006  -0.003   0.000   0.000   0.000   0.000   0.000
(PID.TID 0000.0001)  10   1.367  34.800  37.299  -0.129   0.787  -0.006  -0.003   0.000   0.000   0.000   0.000   0.000
(PID.TID 0000.0001)  11   1.327  34.800  39.405  -0.141   0.783  -0.005  -0.003   0.000   0.000   0.000   0.000   0.000
(PID.TID 0000.0001)  12   0.791  34.800  41.788  -0.149   0.780  -0.005  -0.003   0.000   0.000   0.000   0.000   0.000
(PID.TID 0000.0001)  13   0.736  34.750  44.259  -0.164   0.776  -0.005  -0.002   0.000   0.000   0.000   0.000   0.000
(PID.TID 0000.0001)  14   0.186  34.750  47.044  -0.175   0.773  -0.005  -0.002   0.000   0.000   0.000   0.000   0.000
(PID.TID 0000.0001)  15   0.595  34.750  49.835  -0.196   0.767  -0.004  -0.002   0.000   0.000   0.000   0.000   0.000
(PID.TID 0000.0001) rhonil =   /* Reference density ( kg/m^3 ) */
(PID.TID 0000.0001)                 1.035000000000000E+03
(PID.TID 0000.0001)     ;
(PID.TID 0000.0001) rhoConst =   /* Reference density ( kg/m^3 ) */
(PID.TID 0000.0001)                 1.035000000000000E+03
(PID.TID 0000.0001)     ;
(PID.TID 0000.0001) rhoConstFresh =   /* Reference density ( kg/m^3 ) */
(PID.TID 0000.0001)                 9.998000000000000E+02
(PID.TID 0000.0001)     ;
(PID.TID 0000.0001) gravity =   /* Gravitational acceleration ( m/s^2 ) */
(PID.TID 0000.0001)                 9.810000000000000E+00
(PID.TID 0000.0001)     ;
(PID.TID 0000.0001) gBaro =   /* Barotropic gravity ( m/s^2 ) */
(PID.TID 0000.0001)                 9.810000000000000E+00
(PID.TID 0000.0001)     ;
(PID.TID 0000.0001) f0 =   /* Reference coriolis parameter ( 1/s ) */
(PID.TID 0000.0001)                 1.000000000000000E-04
(PID.TID 0000.0001)     ;
(PID.TID 0000.0001) beta =   /* Beta ( 1/(m.s) ) */
(PID.TID 0000.0001)                 9.999999999999999E-12
(PID.TID 0000.0001)     ;
(PID.TID 0000.0001) freeSurfFac =   /* Implicit free surface factor */
(PID.TID 0000.0001)                 1.000000000000000E+00
(PID.TID 0000.0001)     ;
(PID.TID 0000.0001) implicitFreeSurface =   /* Implicit free surface on/off flag */
(PID.TID 0000.0001)                   T
(PID.TID 0000.0001)     ;
(PID.TID 0000.0001) rigidLid =   /* Rigid lid on/off flag */
(PID.TID 0000.0001)                   F
(PID.TID 0000.0001)     ;
(PID.TID 0000.0001) implicSurfPress =   /* Surface Pressure implicit factor (0-1)*/
(PID.TID 0000.0001)                 1.000000000000000E+00
(PID.TID 0000.0001)     ;
(PID.TID 0000.0001) implicDiv2Dflow =   /* Barot. Flow Div. implicit factor (0-1)*/
(PID.TID 0000.0001)                 1.000000000000000E+00
(PID.TID 0000.0001)     ;
(PID.TID 0000.0001) exactConserv =   /* Exact Volume Conservation on/off flag*/
(PID.TID 0000.0001)                   F
(PID.TID 0000.0001)     ;
(PID.TID 0000.0001) uniformLin_PhiSurf =   /* use uniform Bo_surf on/off flag*/
(PID.TID 0000.0001)                   T
(PID.TID 0000.0001)     ;
(PID.TID 0000.0001) nonlinFreeSurf =   /* Non-linear Free Surf. options (-1,0,1,2,3)*/
(PID.TID 0000.0001)                       0
(PID.TID 0000.0001)     ;
(PID.TID 0000.0001)      -1,0= Off ; 1,2,3= On, 2=+rescale gU,gV, 3=+update cg2d solv.
(PID.TID 0000.0001) hFacInf =   /* lower threshold for hFac (nonlinFreeSurf only)*/
(PID.TID 0000.0001)                 1.000000000000000E+00
(PID.TID 0000.0001)     ;
(PID.TID 0000.0001) hFacSup =   /* upper threshold for hFac (nonlinFreeSurf only)*/
(PID.TID 0000.0001)                 1.000000000000000E+00
(PID.TID 0000.0001)     ;
(PID.TID 0000.0001) useRealFreshWaterFlux =   /* Real Fresh Water Flux on/off flag*/
(PID.TID 0000.0001)                   T
(PID.TID 0000.0001)     ;
(PID.TID 0000.0001) convertFW2Salt = /* convert F.W. Flux to Salt Flux (-1=use local S)(ppt)*/
(PID.TID 0000.0001)                -1.000000000000000E+00
(PID.TID 0000.0001)     ;
(PID.TID 0000.0001) multiDimAdvection =   /* enable/disable Multi-Dim Advection */
(PID.TID 0000.0001)                   T
(PID.TID 0000.0001)     ;
(PID.TID 0000.0001) staggerTimeStep =   /* Stagger time stepping on/off flag */
(PID.TID 0000.0001)                   F
(PID.TID 0000.0001)     ;
(PID.TID 0000.0001) momStepping =  /* Momentum equation on/off flag */
(PID.TID 0000.0001)                   T
(PID.TID 0000.0001)     ;
(PID.TID 0000.0001) momAdvection =  /* Momentum advection on/off flag */
(PID.TID 0000.0001)                   T
(PID.TID 0000.0001)     ;
(PID.TID 0000.0001) momViscosity =  /* Momentum viscosity on/off flag */
(PID.TID 0000.0001)                   T
(PID.TID 0000.0001)     ;
(PID.TID 0000.0001) useCoriolis =  /* Coriolis on/off flag */
(PID.TID 0000.0001)                   T
(PID.TID 0000.0001)     ;
(PID.TID 0000.0001) momForcing =  /* Momentum forcing on/off flag */
(PID.TID 0000.0001)                   T
(PID.TID 0000.0001)     ;
(PID.TID 0000.0001) momPressureForcing =  /* Momentum pressure term on/off flag */
(PID.TID 0000.0001)                   T
(PID.TID 0000.0001)     ;
(PID.TID 0000.0001) tempStepping =  /* Temperature equation on/off flag */
(PID.TID 0000.0001)                   T
(PID.TID 0000.0001)     ;
(PID.TID 0000.0001) tempAdvection=  /* Temperature advection on/off flag */
(PID.TID 0000.0001)                   T
(PID.TID 0000.0001)     ;
(PID.TID 0000.0001) tempForcing  =  /* Temperature forcing on/off flag */
(PID.TID 0000.0001)                   T
(PID.TID 0000.0001)     ;
(PID.TID 0000.0001) saltStepping =  /* Salinity equation on/off flag */
(PID.TID 0000.0001)                   T
(PID.TID 0000.0001)     ;
(PID.TID 0000.0001) saltAdvection=  /* Salinity advection on/off flag */
(PID.TID 0000.0001)                   T
(PID.TID 0000.0001)     ;
(PID.TID 0000.0001) saltForcing  =  /* Salinity forcing on/off flag */
(PID.TID 0000.0001)                   T
(PID.TID 0000.0001)     ;
(PID.TID 0000.0001) nonHydrostatic =  /* Non-Hydrostatic on/off flag */
(PID.TID 0000.0001)                   F
(PID.TID 0000.0001)     ;
(PID.TID 0000.0001) //
(PID.TID 0000.0001) // Elliptic solver(s) paramters ( PARM02 in namelist )
(PID.TID 0000.0001) //
(PID.TID 0000.0001) cg2dMaxIters =   /* Upper limit on 2d con. grad iterations  */
(PID.TID 0000.0001)                     500
(PID.TID 0000.0001)     ;
(PID.TID 0000.0001) cg2dChkResFreq =   /* 2d con. grad convergence test frequency */
(PID.TID 0000.0001)                       1
(PID.TID 0000.0001)     ;
(PID.TID 0000.0001) cg2dTargetResidual =   /* 2d con. grad target residual  */
(PID.TID 0000.0001)                 1.000000000000000E-13
(PID.TID 0000.0001)     ;
(PID.TID 0000.0001) //
(PID.TID 0000.0001) // Time stepping paramters ( PARM03 in namelist )
(PID.TID 0000.0001) //
(PID.TID 0000.0001) nIter0 =   /* Base timestep number  */
(PID.TID 0000.0001)                       0
(PID.TID 0000.0001)     ;
(PID.TID 0000.0001) nTimeSteps =   /* Number of timesteps */
(PID.TID 0000.0001)                      20
(PID.TID 0000.0001)     ;
(PID.TID 0000.0001) deltatTmom =   /* Momentum equation timestep ( s ) */
(PID.TID 0000.0001)                 1.200000000000000E+03
(PID.TID 0000.0001)     ;
(PID.TID 0000.0001) deltatTtracer =   /* Tracer equation timestep ( s ) */
(PID.TID 0000.0001)                 4.320000000000000E+04
(PID.TID 0000.0001)     ;
(PID.TID 0000.0001) deltatTClock  =   /* Model clock timestep ( s ) */
(PID.TID 0000.0001)                 4.320000000000000E+04
(PID.TID 0000.0001)     ;
(PID.TID 0000.0001) cAdjFreq =   /* Convective adjustment interval ( s ) */
(PID.TID 0000.0001)                 0.000000000000000E+00
(PID.TID 0000.0001)     ;
(PID.TID 0000.0001) forcing_In_AB =   /* put T,S Forcing in Adams-Bash. stepping */
(PID.TID 0000.0001)                   T
(PID.TID 0000.0001)     ;
(PID.TID 0000.0001) abeps =   /* Adams-Bashforth stabilizing weight */
(PID.TID 0000.0001)                 1.000000000000000E-01
(PID.TID 0000.0001)     ;
(PID.TID 0000.0001) tauCD =   /* CD coupling time-scale ( s ) */
(PID.TID 0000.0001)                 3.214280000000000E+05
(PID.TID 0000.0001)     ;
(PID.TID 0000.0001) rCD =   /* Normalised CD coupling parameter */
(PID.TID 0000.0001)                 9.962666600296178E-01
(PID.TID 0000.0001)     ;
(PID.TID 0000.0001) startTime =   /* Run start time ( s ). */
(PID.TID 0000.0001)                 0.000000000000000E+00
(PID.TID 0000.0001)     ;
(PID.TID 0000.0001) endTime =   /* Integration ending time ( s ). */
(PID.TID 0000.0001)                 8.640000000000000E+05
(PID.TID 0000.0001)     ;
(PID.TID 0000.0001) pChkPtFreq =   /* Permanent restart/checkpoint file interval ( s ). */
(PID.TID 0000.0001)                 3.110400000000000E+08
(PID.TID 0000.0001)     ;
(PID.TID 0000.0001) chkPtFreq =   /* Rolling restart/checkpoint file interval ( s ). */
(PID.TID 0000.0001)                 0.000000000000000E+00
(PID.TID 0000.0001)     ;
(PID.TID 0000.0001) dumpFreq =   /* Model state write out interval ( s ). */
(PID.TID 0000.0001)                 3.110400000000000E+08
(PID.TID 0000.0001)     ;
(PID.TID 0000.0001) //
(PID.TID 0000.0001) // Gridding paramters ( PARM04 in namelist )
(PID.TID 0000.0001) //
(PID.TID 0000.0001) usingCartesianGrid =   /* Cartesian coordinates flag ( True / False ) */
(PID.TID 0000.0001)                   F
(PID.TID 0000.0001)     ;
(PID.TID 0000.0001) usingSphericalPolarGrid =   /* Spherical coordinates flag ( True / False ) */
(PID.TID 0000.0001)                   T
(PID.TID 0000.0001)     ;
(PID.TID 0000.0001) groundAtK1 =   /* Lower Boundary (ground) at the surface(k=1) ( T / F ) */
(PID.TID 0000.0001)                   F
(PID.TID 0000.0001)     ;
(PID.TID 0000.0001) Ro_SeaLevel =   /* r(1) ( units of r ) */
(PID.TID 0000.0001)                 0.000000000000000E+00
(PID.TID 0000.0001)     ;
(PID.TID 0000.0001) rkFac =   /* minus Vertical index orientation  */
(PID.TID 0000.0001)                 1.000000000000000E+00
(PID.TID 0000.0001)     ;
(PID.TID 0000.0001) horiVertRatio =   /* Ratio on units : Horiz - Vertical */
(PID.TID 0000.0001)                 1.000000000000000E+00
(PID.TID 0000.0001)     ;
(PID.TID 0000.0001) drC =   /* C spacing ( units of r ) */
(PID.TID 0000.0001)                 2.500000000000000E+01,      /* K =  1 */
(PID.TID 0000.0001)                 6.000000000000000E+01,      /* K =  2 */
(PID.TID 0000.0001)                 8.500000000000000E+01,      /* K =  3 */
(PID.TID 0000.0001)                 1.200000000000000E+02,      /* K =  4 */
(PID.TID 0000.0001)                 1.650000000000000E+02,      /* K =  5 */
(PID.TID 0000.0001)                 2.150000000000000E+02,      /* K =  6 */
(PID.TID 0000.0001)                 2.650000000000000E+02,      /* K =  7 */
(PID.TID 0000.0001)                 3.150000000000000E+02,      /* K =  8 */
(PID.TID 0000.0001)                 3.650000000000000E+02,      /* K =  9 */
(PID.TID 0000.0001)                 4.150000000000000E+02,      /* K = 10 */
(PID.TID 0000.0001)                 4.650000000000000E+02,      /* K = 11 */
(PID.TID 0000.0001)                 5.150000000000000E+02,      /* K = 12 */
(PID.TID 0000.0001)                 5.650000000000000E+02,      /* K = 13 */
(PID.TID 0000.0001)                 6.150000000000000E+02,      /* K = 14 */
(PID.TID 0000.0001)                 6.650000000000000E+02       /* K = 15 */
(PID.TID 0000.0001)     ;
(PID.TID 0000.0001) drF =   /* W spacing ( units of r ) */
(PID.TID 0000.0001)                 5.000000000000000E+01,      /* K =  1 */
(PID.TID 0000.0001)                 7.000000000000000E+01,      /* K =  2 */
(PID.TID 0000.0001)                 1.000000000000000E+02,      /* K =  3 */
(PID.TID 0000.0001)                 1.400000000000000E+02,      /* K =  4 */
(PID.TID 0000.0001)                 1.900000000000000E+02,      /* K =  5 */
(PID.TID 0000.0001)                 2.400000000000000E+02,      /* K =  6 */
(PID.TID 0000.0001)                 2.900000000000000E+02,      /* K =  7 */
(PID.TID 0000.0001)                 3.400000000000000E+02,      /* K =  8 */
(PID.TID 0000.0001)                 3.900000000000000E+02,      /* K =  9 */
(PID.TID 0000.0001)                 4.400000000000000E+02,      /* K = 10 */
(PID.TID 0000.0001)                 4.900000000000000E+02,      /* K = 11 */
(PID.TID 0000.0001)                 5.400000000000000E+02,      /* K = 12 */
(PID.TID 0000.0001)                 5.900000000000000E+02,      /* K = 13 */
(PID.TID 0000.0001)                 6.400000000000000E+02,      /* K = 14 */
(PID.TID 0000.0001)                 6.900000000000000E+02       /* K = 15 */
(PID.TID 0000.0001)     ;
(PID.TID 0000.0001) delX =   /* U spacing ( m - cartesian, degrees - spherical ) */
(PID.TID 0000.0001)    90 @  4.000000000000000E+00              /* I =  1: 90 */
(PID.TID 0000.0001)     ;
(PID.TID 0000.0001) delY =   /* V spacing ( m - cartesian, degrees - spherical ) */
(PID.TID 0000.0001)    40 @  4.000000000000000E+00              /* J =  1: 40 */
(PID.TID 0000.0001)     ;
(PID.TID 0000.0001) phiMin =    /* South edge (ignored - cartesian, degrees - spherical ) */
(PID.TID 0000.0001)                -8.000000000000000E+01
(PID.TID 0000.0001)     ;
(PID.TID 0000.0001) thetaMin =    /* West edge ( ignored - cartesian, degrees - spherical ) */
(PID.TID 0000.0001)                 0.000000000000000E+00
(PID.TID 0000.0001)     ;
(PID.TID 0000.0001) rSphere =    /* Radius ( ignored - cartesian, m - spherical ) */
(PID.TID 0000.0001)                 6.370000000000000E+06
(PID.TID 0000.0001)     ;
(PID.TID 0000.0001) xcoord =   /* P-point X coord ( m - cartesian, degrees - spherical ) */
(PID.TID 0000.0001)                 2.000000000000000E+00,      /* I =  1 */
(PID.TID 0000.0001)                 6.000000000000000E+00,      /* I =  2 */
(PID.TID 0000.0001)                 1.000000000000000E+01,      /* I =  3 */
(PID.TID 0000.0001)                 1.400000000000000E+01,      /* I =  4 */
(PID.TID 0000.0001)                 1.800000000000000E+01,      /* I =  5 */
(PID.TID 0000.0001)                 2.200000000000000E+01,      /* I =  6 */
(PID.TID 0000.0001)                 2.600000000000000E+01,      /* I =  7 */
(PID.TID 0000.0001)                 3.000000000000000E+01,      /* I =  8 */
(PID.TID 0000.0001)                 3.400000000000000E+01,      /* I =  9 */
(PID.TID 0000.0001)                 3.800000000000000E+01,      /* I = 10 */
(PID.TID 0000.0001)                 4.200000000000000E+01,      /* I = 11 */
(PID.TID 0000.0001)                 4.600000000000000E+01,      /* I = 12 */
(PID.TID 0000.0001)                 5.000000000000000E+01,      /* I = 13 */
(PID.TID 0000.0001)                 5.400000000000000E+01,      /* I = 14 */
(PID.TID 0000.0001)                 5.800000000000000E+01,      /* I = 15 */
(PID.TID 0000.0001)                 6.200000000000000E+01,      /* I = 16 */
(PID.TID 0000.0001)                 6.600000000000000E+01,      /* I = 17 */
(PID.TID 0000.0001)                 7.000000000000000E+01,      /* I = 18 */
(PID.TID 0000.0001)                 7.400000000000000E+01,      /* I = 19 */
(PID.TID 0000.0001)                 7.800000000000000E+01,      /* I = 20 */
(PID.TID 0000.0001)                 8.200000000000000E+01,      /* I = 21 */
(PID.TID 0000.0001)                 8.600000000000000E+01,      /* I = 22 */
(PID.TID 0000.0001)                 9.000000000000000E+01,      /* I = 23 */
(PID.TID 0000.0001)                 9.400000000000000E+01,      /* I = 24 */
(PID.TID 0000.0001)                 9.800000000000000E+01,      /* I = 25 */
(PID.TID 0000.0001)                 1.020000000000000E+02,      /* I = 26 */
(PID.TID 0000.0001)                 1.060000000000000E+02,      /* I = 27 */
(PID.TID 0000.0001)                 1.100000000000000E+02,      /* I = 28 */
(PID.TID 0000.0001)                 1.140000000000000E+02,      /* I = 29 */
(PID.TID 0000.0001)                 1.180000000000000E+02,      /* I = 30 */
(PID.TID 0000.0001)                 1.220000000000000E+02,      /* I = 31 */
(PID.TID 0000.0001)                 1.260000000000000E+02,      /* I = 32 */
(PID.TID 0000.0001)                 1.300000000000000E+02,      /* I = 33 */
(PID.TID 0000.0001)                 1.340000000000000E+02,      /* I = 34 */
(PID.TID 0000.0001)                 1.380000000000000E+02,      /* I = 35 */
(PID.TID 0000.0001)                 1.420000000000000E+02,      /* I = 36 */
(PID.TID 0000.0001)                 1.460000000000000E+02,      /* I = 37 */
(PID.TID 0000.0001)                 1.500000000000000E+02,      /* I = 38 */
(PID.TID 0000.0001)                 1.540000000000000E+02,      /* I = 39 */
(PID.TID 0000.0001)                 1.580000000000000E+02,      /* I = 40 */
(PID.TID 0000.0001)                 1.620000000000000E+02,      /* I = 41 */
(PID.TID 0000.0001)                 1.660000000000000E+02,      /* I = 42 */
(PID.TID 0000.0001)                 1.700000000000000E+02,      /* I = 43 */
(PID.TID 0000.0001)                 1.740000000000000E+02,      /* I = 44 */
(PID.TID 0000.0001)                 1.780000000000000E+02,      /* I = 45 */
(PID.TID 0000.0001)                 1.820000000000000E+02,      /* I = 46 */
(PID.TID 0000.0001)                 1.860000000000000E+02,      /* I = 47 */
(PID.TID 0000.0001)                 1.900000000000000E+02,      /* I = 48 */
(PID.TID 0000.0001)                 1.940000000000000E+02,      /* I = 49 */
(PID.TID 0000.0001)                 1.980000000000000E+02,      /* I = 50 */
(PID.TID 0000.0001)                 2.020000000000000E+02,      /* I = 51 */
(PID.TID 0000.0001)                 2.060000000000000E+02,      /* I = 52 */
(PID.TID 0000.0001)                 2.100000000000000E+02,      /* I = 53 */
(PID.TID 0000.0001)                 2.140000000000000E+02,      /* I = 54 */
(PID.TID 0000.0001)                 2.180000000000000E+02,      /* I = 55 */
(PID.TID 0000.0001)                 2.220000000000000E+02,      /* I = 56 */
(PID.TID 0000.0001)                 2.260000000000000E+02,      /* I = 57 */
(PID.TID 0000.0001)                 2.300000000000000E+02,      /* I = 58 */
(PID.TID 0000.0001)                 2.340000000000000E+02,      /* I = 59 */
(PID.TID 0000.0001)                 2.380000000000000E+02,      /* I = 60 */
(PID.TID 0000.0001)                 2.420000000000000E+02,      /* I = 61 */
(PID.TID 0000.0001)                 2.460000000000000E+02,      /* I = 62 */
(PID.TID 0000.0001)                 2.500000000000000E+02,      /* I = 63 */
(PID.TID 0000.0001)                 2.540000000000000E+02,      /* I = 64 */
(PID.TID 0000.0001)                 2.580000000000000E+02,      /* I = 65 */
(PID.TID 0000.0001)                 2.620000000000000E+02,      /* I = 66 */
(PID.TID 0000.0001)                 2.660000000000000E+02,      /* I = 67 */
(PID.TID 0000.0001)                 2.700000000000000E+02,      /* I = 68 */
(PID.TID 0000.0001)                 2.740000000000000E+02,      /* I = 69 */
(PID.TID 0000.0001)                 2.780000000000000E+02,      /* I = 70 */
(PID.TID 0000.0001)                 2.820000000000000E+02,      /* I = 71 */
(PID.TID 0000.0001)                 2.860000000000000E+02,      /* I = 72 */
(PID.TID 0000.0001)                 2.900000000000000E+02,      /* I = 73 */
(PID.TID 0000.0001)                 2.940000000000000E+02,      /* I = 74 */
(PID.TID 0000.0001)                 2.980000000000000E+02,      /* I = 75 */
(PID.TID 0000.0001)                 3.020000000000000E+02,      /* I = 76 */
(PID.TID 0000.0001)                 3.060000000000000E+02,      /* I = 77 */
(PID.TID 0000.0001)                 3.100000000000000E+02,      /* I = 78 */
(PID.TID 0000.0001)                 3.140000000000000E+02,      /* I = 79 */
(PID.TID 0000.0001)                 3.180000000000000E+02,      /* I = 80 */
(PID.TID 0000.0001)                 3.220000000000000E+02,      /* I = 81 */
(PID.TID 0000.0001)                 3.260000000000000E+02,      /* I = 82 */
(PID.TID 0000.0001)                 3.300000000000000E+02,      /* I = 83 */
(PID.TID 0000.0001)                 3.340000000000000E+02,      /* I = 84 */
(PID.TID 0000.0001)                 3.380000000000000E+02,      /* I = 85 */
(PID.TID 0000.0001)                 3.420000000000000E+02,      /* I = 86 */
(PID.TID 0000.0001)                 3.460000000000000E+02,      /* I = 87 */
(PID.TID 0000.0001)                 3.500000000000000E+02,      /* I = 88 */
(PID.TID 0000.0001)                 3.540000000000000E+02,      /* I = 89 */
(PID.TID 0000.0001)                 3.580000000000000E+02       /* I = 90 */
(PID.TID 0000.0001)     ;
(PID.TID 0000.0001) ycoord =   /* P-point Y coord ( m - cartesian, degrees - spherical ) */
(PID.TID 0000.0001)                -7.800000000000000E+01,      /* J =  1 */
(PID.TID 0000.0001)                -7.400000000000000E+01,      /* J =  2 */
(PID.TID 0000.0001)                -7.000000000000000E+01,      /* J =  3 */
(PID.TID 0000.0001)                -6.600000000000000E+01,      /* J =  4 */
[...]
(PID.TID 0000.0001) // =======================================================
(PID.TID 0000.0001) // END OF FIELD                                          =
(PID.TID 0000.0001) // =======================================================
(PID.TID 0000.0001) 
(PID.TID 0000.0001) Start initial hydrostatic pressure computation
(PID.TID 0000.0001) Iteration  1, RMS-difference =  0.0000000000000E+00
(PID.TID 0000.0001) Iteration  2, RMS-difference =  0.0000000000000E+00
(PID.TID 0000.0001) Iteration  3, RMS-difference =  0.0000000000000E+00
(PID.TID 0000.0001) Iteration  4, RMS-difference =  0.0000000000000E+00
(PID.TID 0000.0001) Iteration  5, RMS-difference =  0.0000000000000E+00
(PID.TID 0000.0001) Iteration  6, RMS-difference =  0.0000000000000E+00
(PID.TID 0000.0001) Iteration  7, RMS-difference =  0.0000000000000E+00
(PID.TID 0000.0001) Iteration  8, RMS-difference =  0.0000000000000E+00
(PID.TID 0000.0001) Iteration  9, RMS-difference =  0.0000000000000E+00
(PID.TID 0000.0001) Iteration 10, RMS-difference =  0.0000000000000E+00
(PID.TID 0000.0001) Iteration 11, RMS-difference =  0.0000000000000E+00
(PID.TID 0000.0001) Iteration 12, RMS-difference =  0.0000000000000E+00
(PID.TID 0000.0001) Iteration 13, RMS-difference =  0.0000000000000E+00
(PID.TID 0000.0001) Iteration 14, RMS-difference =  0.0000000000000E+00
(PID.TID 0000.0001) Iteration 15, RMS-difference =  0.0000000000000E+00
(PID.TID 0000.0001) Initial hydrostatic pressure converged.
(PID.TID 0000.0001) 
(PID.TID 0000.0001)  MDSREADFIELD: opening global file: trenberth_taux.bin
(PID.TID 0000.0001)  MDSREADFIELD: opening global file: trenberth_tauy.bin
(PID.TID 0000.0001)  MDSREADFIELD: opening global file: ncep_qnet.bin
(PID.TID 0000.0001)  MDSREADFIELD: opening global file: lev_sst.bin
(PID.TID 0000.0001)  MDSREADFIELD: opening global file: lev_sss.bin
(PID.TID 0000.0001) // =======================================================
(PID.TID 0000.0001) // Model current state
(PID.TID 0000.0001) // =======================================================
(PID.TID 0000.0001) 
(PID.TID 0000.0001) // =======================================================
(PID.TID 0000.0001) // Begin MONITOR dynamic field statistics
(PID.TID 0000.0001) // =======================================================
(PID.TID 0000.0001) %MON time_tsnumber                =                     0
(PID.TID 0000.0001) %MON time_secondsf                =   0.0000000000000E+00
(PID.TID 0000.0001) %MON dynstat_eta_max              =   0.0000000000000E+00
(PID.TID 0000.0001) %MON dynstat_eta_min              =   0.0000000000000E+00
(PID.TID 0000.0001) %MON dynstat_eta_mean             =   0.0000000000000E+00
(PID.TID 0000.0001) %MON dynstat_eta_sd               =   0.0000000000000E+00
(PID.TID 0000.0001) %MON dynstat_eta_del2             =   0.0000000000000E+00
(PID.TID 0000.0001) %MON dynstat_uvel_max             =   0.0000000000000E+00
(PID.TID 0000.0001) %MON dynstat_uvel_min             =   0.0000000000000E+00
(PID.TID 0000.0001) %MON dynstat_uvel_mean            =   0.0000000000000E+00
(PID.TID 0000.0001) %MON dynstat_uvel_sd              =   0.0000000000000E+00
(PID.TID 0000.0001) %MON dynstat_uvel_del2            =   0.0000000000000E+00
(PID.TID 0000.0001) %MON dynstat_vvel_max             =   0.0000000000000E+00
(PID.TID 0000.0001) %MON dynstat_vvel_min             =   0.0000000000000E+00
(PID.TID 0000.0001) %MON dynstat_vvel_mean            =   0.0000000000000E+00
(PID.TID 0000.0001) %MON dynstat_vvel_sd              =   0.0000000000000E+00
(PID.TID 0000.0001) %MON dynstat_vvel_del2            =   0.0000000000000E+00
(PID.TID 0000.0001) %MON dynstat_wvel_max             =   0.0000000000000E+00
(PID.TID 0000.0001) %MON dynstat_wvel_min             =   0.0000000000000E+00
(PID.TID 0000.0001) %MON dynstat_wvel_mean            =   0.0000000000000E+00
(PID.TID 0000.0001) %MON dynstat_wvel_sd              =   0.0000000000000E+00
(PID.TID 0000.0001) %MON dynstat_wvel_del2            =   0.0000000000000E+00
(PID.TID 0000.0001) %MON dynstat_theta_max            =   2.9733388900757E+01
(PID.TID 0000.0001) %MON dynstat_theta_min            =  -2.6255600452423E+00
(PID.TID 0000.0001) %MON dynstat_theta_mean           =   3.6196930772980E+00
(PID.TID 0000.0001) %MON dynstat_theta_sd             =   4.4174800615520E+00
(PID.TID 0000.0001) %MON dynstat_theta_del2           =   1.5098782572970E-01
(PID.TID 0000.0001) %MON dynstat_salt_max             =   3.7475627899170E+01
(PID.TID 0000.0001) %MON dynstat_salt_min             =   2.9752769470215E+01
(PID.TID 0000.0001) %MON dynstat_salt_mean            =   3.4718006161475E+01
(PID.TID 0000.0001) %MON dynstat_salt_sd              =   2.9628819587990E-01
(PID.TID 0000.0001) %MON dynstat_salt_del2            =   2.6251884861846E-02
(PID.TID 0000.0001) %MON advcfl_uvel_max              =   0.0000000000000E+00
(PID.TID 0000.0001) %MON advcfl_vvel_max              =   0.0000000000000E+00
(PID.TID 0000.0001) %MON advcfl_wvel_max              =   0.0000000000000E+00
(PID.TID 0000.0001) %MON advcfl_W_hf_max              =   0.0000000000000E+00
(PID.TID 0000.0001) %MON ke_max                       =   0.0000000000000E+00
(PID.TID 0000.0001) %MON ke_mean                      =   0.0000000000000E+00
(PID.TID 0000.0001) %MON ke_volint                    =   0.0000000000000E+00
(PID.TID 0000.0001) %MON ke_volmean                   =   0.0000000000000E+00
(PID.TID 0000.0001) %MON ke_vol                       =   1.3226782436723E+18
(PID.TID 0000.0001) // =======================================================
(PID.TID 0000.0001) // End MONITOR dynamic field statistics
(PID.TID 0000.0001) // =======================================================
 S/R EXTERNAL_FIELDS_LOAD: Reading new data  0. 0
(PID.TID 0000.0001)  MDSREADFIELD: opening global file: trenberth_taux.bin
(PID.TID 0000.0001)  MDSREADFIELD: opening global file: trenberth_taux.bin
(PID.TID 0000.0001)  MDSREADFIELD: opening global file: trenberth_tauy.bin
(PID.TID 0000.0001)  MDSREADFIELD: opening global file: trenberth_tauy.bin
(PID.TID 0000.0001)  MDSREADFIELD: opening global file: ncep_qnet.bin
(PID.TID 0000.0001)  MDSREADFIELD: opening global file: ncep_qnet.bin
(PID.TID 0000.0001)  MDSREADFIELD: opening global file: lev_sst.bin
(PID.TID 0000.0001)  MDSREADFIELD: opening global file: lev_sst.bin
(PID.TID 0000.0001)  MDSREADFIELD: opening global file: lev_sss.bin
(PID.TID 0000.0001)  MDSREADFIELD: opening global file: lev_sss.bin
time,SST,SSS,fu,fv,Q,E-P,i0,i1,a,b =   0.0000E+00  5.3151E-02  3.4364E+01 -4.0500E-02 -6.3753E-02  2.6510E+02  0.0000E+00    12     1  5.0000E-01  5.0000E-01
time,fu0,fu1,fu =   0.0000E+00 -4.5368E-02 -3.5633E-02 -4.0500E-02  5.0000E-01  5.0000E-01
 cg2d: Sum(rhs),rhsMax =   6.39787701983696E-16  2.53364304519874E+00
(PID.TID 0000.0001)                    cg2d_init_res =    6.22530153603214E+00
(PID.TID 0000.0001)                       cg2d_iters =    26
(PID.TID 0000.0001)                         cg2d_res =    5.02378138787112E-14
time,SST,SSS,fu,fv,Q,E-P,i0,i1,a,b =   4.3200E+04  8.3327E-02  3.4375E+01 -4.0338E-02 -6.3536E-02  2.6512E+02  0.0000E+00    12     1  5.1667E-01  4.8333E-01
time,fu0,fu1,fu =   4.3200E+04 -4.5368E-02 -3.5633E-02 -4.0338E-02  5.1667E-01  4.8333E-01
 cg2d: Sum(rhs),rhsMax =   3.95991155447903E-14  5.05254939001357E+00
time,SST,SSS,fu,fv,Q,E-P,i0,i1,a,b =   8.6400E+04  1.1350E-01  3.4387E+01 -4.0176E-02 -6.3320E-02  2.6514E+02  0.0000E+00    12     1  5.3333E-01  4.6667E-01
time,fu0,fu1,fu =   8.6400E+04 -4.5368E-02 -3.5633E-02 -4.0176E-02  5.3333E-01  4.6667E-01
 cg2d: Sum(rhs),rhsMax =   7.11570017318530E-14  6.32439557986743E+00
time,SST,SSS,fu,fv,Q,E-P,i0,i1,a,b =   1.2960E+05  1.4368E-01  3.4399E+01 -4.0014E-02 -6.3103E-02  2.6516E+02  0.0000E+00    12     1  5.5000E-01  4.5000E-01
time,fu0,fu1,fu =   1.2960E+05 -4.5368E-02 -3.5633E-02 -4.0014E-02  5.5000E-01  4.5000E-01
 cg2d: Sum(rhs),rhsMax =   8.61741776027325E-14  6.76027411578251E+00
time,SST,SSS,fu,fv,Q,E-P,i0,i1,a,b =   1.7280E+05  1.7385E-01  3.4410E+01 -3.9851E-02 -6.2886E-02  2.6519E+02  0.0000E+00    12     1  5.6667E-01  4.3333E-01
time,fu0,fu1,fu =   1.7280E+05 -4.5368E-02 -3.5633E-02 -3.9851E-02  5.6667E-01  4.3333E-01
 cg2d: Sum(rhs),rhsMax =   7.69696264189823E-14  6.90919497891057E+00
time,SST,SSS,fu,fv,Q,E-P,i0,i1,a,b =   2.1600E+05  2.0403E-01  3.4422E+01 -3.9689E-02 -6.2670E-02  2.6521E+02  0.0000E+00    12     1  5.8333E-01  4.1667E-01
time,fu0,fu1,fu =   2.1600E+05 -4.5368E-02 -3.5633E-02 -3.9689E-02  5.8333E-01  4.1667E-01
 cg2d: Sum(rhs),rhsMax =   4.51619536039061E-14  6.95796553498677E+00
time,SST,SSS,fu,fv,Q,E-P,i0,i1,a,b =   2.5920E+05  2.3421E-01  3.4434E+01 -3.9527E-02 -6.2453E-02  2.6523E+02  0.0000E+00    12     1  6.0000E-01  4.0000E-01
time,fu0,fu1,fu =   2.5920E+05 -4.5368E-02 -3.5633E-02 -3.9527E-02  6.0000E-01  4.0000E-01
 cg2d: Sum(rhs),rhsMax =  -1.30808992110376E-15  7.26143063308965E+00
time,SST,SSS,fu,fv,Q,E-P,i0,i1,a,b =   3.0240E+05  2.6438E-01  3.4446E+01 -3.9365E-02 -6.2237E-02  2.6525E+02  0.0000E+00    12     1  6.1667E-01  3.8333E-01
time,fu0,fu1,fu =   3.0240E+05 -4.5368E-02 -3.5633E-02 -3.9365E-02  6.1667E-01  3.8333E-01
 cg2d: Sum(rhs),rhsMax =  -4.20342471767199E-14  7.87405638632218E+00
time,SST,SSS,fu,fv,Q,E-P,i0,i1,a,b =   3.4560E+05  2.9456E-01  3.4457E+01 -3.9202E-02 -6.2020E-02  2.6528E+02  0.0000E+00    12     1  6.3333E-01  3.6667E-01
time,fu0,fu1,fu =   3.4560E+05 -4.5368E-02 -3.5633E-02 -3.9202E-02  6.3333E-01  3.6667E-01
 cg2d: Sum(rhs),rhsMax =  -7.23661582047175E-14  8.21105139125683E+00
time,SST,SSS,fu,fv,Q,E-P,i0,i1,a,b =   3.8880E+05  3.2473E-01  3.4469E+01 -3.9040E-02 -6.1804E-02  2.6530E+02  0.0000E+00    12     1  6.5000E-01  3.5000E-01
time,fu0,fu1,fu =   3.8880E+05 -4.5368E-02 -3.5633E-02 -3.9040E-02  6.5000E-01  3.5000E-01
 cg2d: Sum(rhs),rhsMax =  -2.77188645300686E-13  8.31388271561791E+00
time,SST,SSS,fu,fv,Q,E-P,i0,i1,a,b =   4.3200E+05  3.5491E-01  3.4481E+01 -3.8878E-02 -6.1587E-02  2.6532E+02  0.0000E+00    12     1  6.6667E-01  3.3333E-01
time,fu0,fu1,fu =   4.3200E+05 -4.5368E-02 -3.5633E-02 -3.8878E-02  6.6667E-01  3.3333E-01
 cg2d: Sum(rhs),rhsMax =  -4.82054934164422E-13  8.25118452322666E+00
time,SST,SSS,fu,fv,Q,E-P,i0,i1,a,b =   4.7520E+05  3.8508E-01  3.4492E+01 -3.8716E-02 -6.1371E-02  2.6534E+02  0.0000E+00    12     1  6.8333E-01  3.1667E-01
time,fu0,fu1,fu =   4.7520E+05 -4.5368E-02 -3.5633E-02 -3.8716E-02  6.8333E-01  3.1667E-01
 cg2d: Sum(rhs),rhsMax =  -6.70108540597007E-13  8.09140699012009E+00
time,SST,SSS,fu,fv,Q,E-P,i0,i1,a,b =   5.1840E+05  4.1526E-01  3.4504E+01 -3.8553E-02 -6.1154E-02  2.6537E+02  0.0000E+00    12     1  7.0000E-01  3.0000E-01
time,fu0,fu1,fu =   5.1840E+05 -4.5368E-02 -3.5633E-02 -3.8553E-02  7.0000E-01  3.0000E-01
 cg2d: Sum(rhs),rhsMax =  -7.75851984654435E-13  8.55664182816250E+00
time,SST,SSS,fu,fv,Q,E-P,i0,i1,a,b =   5.6160E+05  4.4544E-01  3.4516E+01 -3.8391E-02 -6.0938E-02  2.6539E+02  0.0000E+00    12     1  7.1667E-01  2.8333E-01
time,fu0,fu1,fu =   5.6160E+05 -4.5368E-02 -3.5633E-02 -3.8391E-02  7.1667E-01  2.8333E-01
 cg2d: Sum(rhs),rhsMax =  -8.06940750113991E-13  9.25242894282467E+00
time,SST,SSS,fu,fv,Q,E-P,i0,i1,a,b =   6.0480E+05  4.7561E-01  3.4527E+01 -3.8229E-02 -6.0721E-02  2.6541E+02  0.0000E+00    12     1  7.3333E-01  2.6667E-01
time,fu0,fu1,fu =   6.0480E+05 -4.5368E-02 -3.5633E-02 -3.8229E-02  7.3333E-01  2.6667E-01
 cg2d: Sum(rhs),rhsMax =  -8.00188474509023E-13  9.75443545754702E+00
time,SST,SSS,fu,fv,Q,E-P,i0,i1,a,b =   6.4800E+05  5.0579E-01  3.4539E+01 -3.8067E-02 -6.0505E-02  2.6543E+02  0.0000E+00    12     1  7.5000E-01  2.5000E-01
time,fu0,fu1,fu =   6.4800E+05 -4.5368E-02 -3.5633E-02 -3.8067E-02  7.5000E-01  2.5000E-01
 cg2d: Sum(rhs),rhsMax =  -7.65970674474620E-13  1.00476150742978E+01
time,SST,SSS,fu,fv,Q,E-P,i0,i1,a,b =   6.9120E+05  5.3596E-01  3.4551E+01 -3.7904E-02 -6.0288E-02  2.6546E+02  0.0000E+00    12     1  7.6667E-01  2.3333E-01
time,fu0,fu1,fu =   6.9120E+05 -4.5368E-02 -3.5633E-02 -3.7904E-02  7.6667E-01  2.3333E-01
 cg2d: Sum(rhs),rhsMax =  -7.12473645619188E-13  1.01286648738937E+01
time,SST,SSS,fu,fv,Q,E-P,i0,i1,a,b =   7.3440E+05  5.6614E-01  3.4563E+01 -3.7742E-02 -6.0072E-02  2.6548E+02  0.0000E+00    12     1  7.8333E-01  2.1667E-01
time,fu0,fu1,fu =   7.3440E+05 -4.5368E-02 -3.5633E-02 -3.7742E-02  7.8333E-01  2.1667E-01
 cg2d: Sum(rhs),rhsMax =  -6.15873203943431E-13  1.00070274428439E+01
time,SST,SSS,fu,fv,Q,E-P,i0,i1,a,b =   7.7760E+05  5.9632E-01  3.4574E+01 -3.7580E-02 -5.9855E-02  2.6550E+02  0.0000E+00    12     1  8.0000E-01  2.0000E-01
time,fu0,fu1,fu =   7.7760E+05 -4.5368E-02 -3.5633E-02 -3.7580E-02  8.0000E-01  2.0000E-01
 cg2d: Sum(rhs),rhsMax =  -7.10363815296586E-13  9.70453620375648E+00
time,SST,SSS,fu,fv,Q,E-P,i0,i1,a,b =   8.2080E+05  6.2649E-01  3.4586E+01 -3.7418E-02 -5.9638E-02  2.6552E+02  0.0000E+00    12     1  8.1667E-01  1.8333E-01
time,fu0,fu1,fu =   8.2080E+05 -4.5368E-02 -3.5633E-02 -3.7418E-02  8.1667E-01  1.8333E-01
 cg2d: Sum(rhs),rhsMax =  -7.59120224362933E-13  9.47668505019232E+00
(PID.TID 0000.0001)   Seconds in section "ALL                    [THE_MODEL_MAIN]":
(PID.TID 0000.0001)           User time:  4.44999981
(PID.TID 0000.0001)         System time:  0.260000011
(PID.TID 0000.0001)     Wall clock time:  4.75173199
(PID.TID 0000.0001)          No. starts: 1
(PID.TID 0000.0001)           No. stops: 1
(PID.TID 0000.0001)   Seconds in section "INITIALISE_FIXED       [THE_MODEL_MAIN]":
(PID.TID 0000.0001)           User time:  0.0599999987
(PID.TID 0000.0001)         System time:  0.040000001
(PID.TID 0000.0001)     Wall clock time:  0.131256104
(PID.TID 0000.0001)          No. starts: 1
(PID.TID 0000.0001)           No. stops: 1
(PID.TID 0000.0001)   Seconds in section "THE_MAIN_LOOP          [THE_MODEL_MAIN]":
(PID.TID 0000.0001)           User time:  4.30999989
(PID.TID 0000.0001)         System time:  0.120000001
(PID.TID 0000.0001)     Wall clock time:  4.437168
(PID.TID 0000.0001)          No. starts: 1
(PID.TID 0000.0001)           No. stops: 1
(PID.TID 0000.0001)   Seconds in section "INITIALISE_VARIA    [THE_MAIN_LOOP]":
(PID.TID 0000.0001)           User time:  0.129999999
(PID.TID 0000.0001)         System time:  0.0400000028
(PID.TID 0000.0001)     Wall clock time:  0.170816064
(PID.TID 0000.0001)          No. starts: 1
(PID.TID 0000.0001)           No. stops: 1
(PID.TID 0000.0001)   Seconds in section "WRITE_STATE         [THE_MAIN_LOOP]":
(PID.TID 0000.0001)           User time:  0.0100000054
(PID.TID 0000.0001)         System time:  0.0299999937
(PID.TID 0000.0001)     Wall clock time:  0.0364619493
(PID.TID 0000.0001)          No. starts: 1
(PID.TID 0000.0001)           No. stops: 1
(PID.TID 0000.0001)   Seconds in section "MONITOR             [THE_MAIN_LOOP]":
(PID.TID 0000.0001)           User time:  0.00999999046
(PID.TID 0000.0001)         System time:  0.
(PID.TID 0000.0001)     Wall clock time:  0.0164890289
(PID.TID 0000.0001)          No. starts: 1
(PID.TID 0000.0001)           No. stops: 1
(PID.TID 0000.0001)   Seconds in section "MAIN LOOP           [THE_MAIN_LOOP]":
(PID.TID 0000.0001)           User time:  4.15999989
(PID.TID 0000.0001)         System time:  0.0500000045
(PID.TID 0000.0001)     Wall clock time:  4.21329701
(PID.TID 0000.0001)          No. starts: 1
(PID.TID 0000.0001)           No. stops: 1
(PID.TID 0000.0001)   Seconds in section "FORWARD_STEP        [THE_MAIN_LOOP]":
(PID.TID 0000.0001)           User time:  4.15999989
(PID.TID 0000.0001)         System time:  0.0500000045
(PID.TID 0000.0001)     Wall clock time:  4.21291077
(PID.TID 0000.0001)          No. starts: 20
(PID.TID 0000.0001)           No. stops: 20
(PID.TID 0000.0001)   Seconds in section "EXTERNAL_FIELDS_LOAD[THE_MAIN_LOOP]":
(PID.TID 0000.0001)           User time:  0.0400002152
(PID.TID 0000.0001)         System time:  0.
(PID.TID 0000.0001)     Wall clock time:  0.0191152096
(PID.TID 0000.0001)          No. starts: 20
(PID.TID 0000.0001)           No. stops: 20
(PID.TID 0000.0001)   Seconds in section "THERMODYNAMICS      [THE_MAIN_LOOP]":
(PID.TID 0000.0001)           User time:  1.87999976
(PID.TID 0000.0001)         System time:  0.00999999791
(PID.TID 0000.0001)     Wall clock time:  1.90243566
(PID.TID 0000.0001)          No. starts: 20
(PID.TID 0000.0001)           No. stops: 20
(PID.TID 0000.0001)   Seconds in section "BLOCKING_EXCHANGES  [THE_MAIN_LOOP]":
(PID.TID 0000.0001)           User time:  0.0400000811
(PID.TID 0000.0001)         System time:  0.
(PID.TID 0000.0001)     Wall clock time:  0.0409581661
(PID.TID 0000.0001)          No. starts: 40
(PID.TID 0000.0001)           No. stops: 40
(PID.TID 0000.0001)   Seconds in section "DYNAMICS            [THE_MAIN_LOOP]":
(PID.TID 0000.0001)           User time:  1.65000027
(PID.TID 0000.0001)         System time:  0.0100000054
(PID.TID 0000.0001)     Wall clock time:  1.67115819
(PID.TID 0000.0001)          No. starts: 20
(PID.TID 0000.0001)           No. stops: 20
(PID.TID 0000.0001)   Seconds in section "SOLVE_FOR_PRESSURE  [THE_MAIN_LOOP]":
(PID.TID 0000.0001)           User time:  0.149999619
(PID.TID 0000.0001)         System time:  0.
(PID.TID 0000.0001)     Wall clock time:  0.171303868
(PID.TID 0000.0001)          No. starts: 20
(PID.TID 0000.0001)           No. stops: 20
(PID.TID 0000.0001)   Seconds in section "THE_CORRECTION_STEP [THE_MAIN_LOOP]":
(PID.TID 0000.0001)           User time:  0.379999965
(PID.TID 0000.0001)         System time:  0.
(PID.TID 0000.0001)     Wall clock time:  0.35895133
(PID.TID 0000.0001)          No. starts: 20
(PID.TID 0000.0001)           No. stops: 20
(PID.TID 0000.0001)   Seconds in section "DO_THE_MODEL_IO     [THE_MAIN_LOOP]":
(PID.TID 0000.0001)           User time:  0.0199999809
(PID.TID 0000.0001)         System time:  0.0300000012
(PID.TID 0000.0001)     Wall clock time:  0.0445278883
(PID.TID 0000.0001)          No. starts: 20
(PID.TID 0000.0001)           No. stops: 20
(PID.TID 0000.0001)   Seconds in section "WRITE_CHECKPOINT    [THE_MAIN_LOOP]":
(PID.TID 0000.0001)           User time:  0.
(PID.TID 0000.0001)         System time:  0.
(PID.TID 0000.0001)     Wall clock time:  0.000428915024
(PID.TID 0000.0001)          No. starts: 20
(PID.TID 0000.0001)           No. stops: 20
(PID.TID 0000.0001)   Seconds in section "WRITE_CHECKPOINT       [THE_MODEL_MAIN]":
(PID.TID 0000.0001)           User time:  0.0799999237
(PID.TID 0000.0001)         System time:  0.100000009
(PID.TID 0000.0001)     Wall clock time:  0.183210015
(PID.TID 0000.0001)          No. starts: 1
(PID.TID 0000.0001)           No. stops: 1
(PID.TID 0000.0001) // ======================================================
(PID.TID 0000.0001) // Tile <-> Tile communication statistics
(PID.TID 0000.0001) // ======================================================
(PID.TID 0000.0001) // o Tile number: 000001
(PID.TID 0000.0001) //         No. X exchanges =              0
(PID.TID 0000.0001) //            Max. X spins =              0
(PID.TID 0000.0001) //            Min. X spins =     1000000000
(PID.TID 0000.0001) //          Total. X spins =              0
(PID.TID 0000.0001) //            Avg. X spins =       0.00E+00
(PID.TID 0000.0001) //         No. Y exchanges =              0
(PID.TID 0000.0001) //            Max. Y spins =              0
(PID.TID 0000.0001) //            Min. Y spins =     1000000000
(PID.TID 0000.0001) //          Total. Y spins =              0
(PID.TID 0000.0001) //            Avg. Y spins =       0.00E+00
(PID.TID 0000.0001) // o Thread number: 000001
(PID.TID 0000.0001) //            No. barriers =           7000
(PID.TID 0000.0001) //      Max. barrier spins =              1
(PID.TID 0000.0001) //      Min. barrier spins =              1
(PID.TID 0000.0001) //     Total barrier spins =           7000
(PID.TID 0000.0001) //      Avg. barrier spins =       1.00E+00
