(PID.TID 0000.0001) 
(PID.TID 0000.0001) // ======================================================
(PID.TID 0000.0001) //                      MITgcm UV
(PID.TID 0000.0001) //                      =========
(PID.TID 0000.0001) // ======================================================
(PID.TID 0000.0001) // execution environment starting up...
(PID.TID 0000.0001) 
(PID.TID 0000.0001) // MITgcmUV version:  checkpoint68z
(PID.TID 0000.0001) // Build user:        jm_c
(PID.TID 0000.0001) // Build host:        villon
(PID.TID 0000.0001) // Build date:        Thu Aug  1 10:25:53 EDT 2024
(PID.TID 0000.0001) 
(PID.TID 0000.0001) // =======================================================
(PID.TID 0000.0001) // Execution Environment parameter file "eedata"
(PID.TID 0000.0001) // =======================================================
(PID.TID 0000.0001) ># Example "eedata" file
(PID.TID 0000.0001) ># Lines beginning "#" are comments
(PID.TID 0000.0001) >#  nTx      :: No. threads per process in X
(PID.TID 0000.0001) >#  nTy      :: No. threads per process in Y
(PID.TID 0000.0001) ># debugMode :: print debug msg (sequence of S/R calls)
(PID.TID 0000.0001) > &EEPARMS
(PID.TID 0000.0001) > nTx=1,
(PID.TID 0000.0001) > nTy=1,
(PID.TID 0000.0001) >#debugMode=.TRUE.,
(PID.TID 0000.0001) > /
(PID.TID 0000.0001) ># Note: Some systems use & as the namelist terminator (as shown here).
(PID.TID 0000.0001) >#       Other systems use a / character.
(PID.TID 0000.0001) 
(PID.TID 0000.0001) // =======================================================
(PID.TID 0000.0001) // Computational Grid Specification ( see files "SIZE.h" )
(PID.TID 0000.0001) //                                  ( and "eedata"       )
(PID.TID 0000.0001) // =======================================================
(PID.TID 0000.0001)      nPx =    1 ; /* No. processes in X */
(PID.TID 0000.0001)      nPy =    1 ; /* No. processes in Y */
(PID.TID 0000.0001)      nSx =    1 ; /* No. tiles in X per process */
(PID.TID 0000.0001)      nSy =    4 ; /* No. tiles in Y per process */
(PID.TID 0000.0001)      sNx =    1 ; /* Tile size in X */
(PID.TID 0000.0001)      sNy =   40 ; /* Tile size in Y */
(PID.TID 0000.0001)      OLx =    2 ; /* Tile overlap distance in X */
(PID.TID 0000.0001)      OLy =    2 ; /* Tile overlap distance in Y */
(PID.TID 0000.0001)      nTx =    1 ; /* No. threads in X per process */
(PID.TID 0000.0001)      nTy =    1 ; /* No. threads in Y per process */
(PID.TID 0000.0001)       Nr =  120 ; /* No. levels in the vertical   */
(PID.TID 0000.0001)       Nx =    1 ; /* Total domain size in X ( = nPx*nSx*sNx ) */
(PID.TID 0000.0001)       Ny =  160 ; /* Total domain size in Y ( = nPy*nSy*sNy ) */
(PID.TID 0000.0001)   nTiles =    4 ; /* Total no. tiles per process ( = nSx*nSy ) */
(PID.TID 0000.0001)   nProcs =    1 ; /* Total no. processes ( = nPx*nPy ) */
(PID.TID 0000.0001) nThreads =    1 ; /* Total no. threads per process ( = nTx*nTy ) */
(PID.TID 0000.0001) usingMPI =    F ; /* Flag used to control whether MPI is in use */
(PID.TID 0000.0001)                   /*  note: To execute a program with MPI calls */
(PID.TID 0000.0001)                   /*  it must be launched appropriately e.g     */
(PID.TID 0000.0001)                   /*  "mpirun -np 64 ......"                    */
(PID.TID 0000.0001) useCoupler=   F ; /* Flag used to control communications with   */
(PID.TID 0000.0001)                   /*  other model components, through a coupler */
(PID.TID 0000.0001) useNest2W_parent =    F ;/* Control 2-W Nesting comm */
(PID.TID 0000.0001) useNest2W_child  =    F ;/* Control 2-W Nesting comm */
(PID.TID 0000.0001) debugMode =    F ; /* print debug msg. (sequence of S/R calls)  */
(PID.TID 0000.0001) printMapIncludesZeros=    F ; /* print zeros in Std.Output maps */
(PID.TID 0000.0001) maxLengthPrt1D=   65 /* maxLength of 1D array printed to StdOut */
(PID.TID 0000.0001) 
(PID.TID 0000.0001) // ======================================================
(PID.TID 0000.0001) // Mapping of tiles to threads
(PID.TID 0000.0001) // ======================================================
(PID.TID 0000.0001) // -o- Thread   1, tiles (   1:   1,   1:   4)
(PID.TID 0000.0001) 
(PID.TID 0000.0001) // ======================================================
(PID.TID 0000.0001) // Tile <-> Tile connectvity table
(PID.TID 0000.0001) // ======================================================
(PID.TID 0000.0001) // Tile number: 000001 (process no. = 000000)
(PID.TID 0000.0001) //        WEST: Tile = 000001, Process = 000000, Comm = put
(PID.TID 0000.0001) //                bi = 000001, bj = 000001
(PID.TID 0000.0001) //        EAST: Tile = 000001, Process = 000000, Comm = put
(PID.TID 0000.0001) //                bi = 000001, bj = 000001
(PID.TID 0000.0001) //       SOUTH: Tile = 000004, Process = 000000, Comm = put
(PID.TID 0000.0001) //                bi = 000001, bj = 000004
(PID.TID 0000.0001) //       NORTH: Tile = 000002, Process = 000000, Comm = put
(PID.TID 0000.0001) //                bi = 000001, bj = 000002
(PID.TID 0000.0001) // Tile number: 000002 (process no. = 000000)
(PID.TID 0000.0001) //        WEST: Tile = 000002, Process = 000000, Comm = put
(PID.TID 0000.0001) //                bi = 000001, bj = 000002
(PID.TID 0000.0001) //        EAST: Tile = 000002, Process = 000000, Comm = put
(PID.TID 0000.0001) //                bi = 000001, bj = 000002
(PID.TID 0000.0001) //       SOUTH: Tile = 000001, Process = 000000, Comm = put
(PID.TID 0000.0001) //                bi = 000001, bj = 000001
(PID.TID 0000.0001) //       NORTH: Tile = 000003, Process = 000000, Comm = put
(PID.TID 0000.0001) //                bi = 000001, bj = 000003
(PID.TID 0000.0001) // Tile number: 000003 (process no. = 000000)
(PID.TID 0000.0001) //        WEST: Tile = 000003, Process = 000000, Comm = put
(PID.TID 0000.0001) //                bi = 000001, bj = 000003
(PID.TID 0000.0001) //        EAST: Tile = 000003, Process = 000000, Comm = put
(PID.TID 0000.0001) //                bi = 000001, bj = 000003
(PID.TID 0000.0001) //       SOUTH: Tile = 000002, Process = 000000, Comm = put
(PID.TID 0000.0001) //                bi = 000001, bj = 000002
(PID.TID 0000.0001) //       NORTH: Tile = 000004, Process = 000000, Comm = put
(PID.TID 0000.0001) //                bi = 000001, bj = 000004
(PID.TID 0000.0001) // Tile number: 000004 (process no. = 000000)
(PID.TID 0000.0001) //        WEST: Tile = 000004, Process = 000000, Comm = put
(PID.TID 0000.0001) //                bi = 000001, bj = 000004
(PID.TID 0000.0001) //        EAST: Tile = 000004, Process = 000000, Comm = put
(PID.TID 0000.0001) //                bi = 000001, bj = 000004
(PID.TID 0000.0001) //       SOUTH: Tile = 000003, Process = 000000, Comm = put
(PID.TID 0000.0001) //                bi = 000001, bj = 000003
(PID.TID 0000.0001) //       NORTH: Tile = 000001, Process = 000000, Comm = put
(PID.TID 0000.0001) //                bi = 000001, bj = 000001
(PID.TID 0000.0001) 
(PID.TID 0000.0001)  INI_PARMS: opening model parameter file "data"
(PID.TID 0000.0001)  OPEN_COPY_DATA_FILE: opening file data
(PID.TID 0000.0001) // =======================================================
(PID.TID 0000.0001) // Parameter file "data"
(PID.TID 0000.0001) // =======================================================
(PID.TID 0000.0001) ># Continuous equation parameters
(PID.TID 0000.0001) >#-note: rhoRefFile is used to turn on the anelastic formulation
(PID.TID 0000.0001) > &PARM01
(PID.TID 0000.0001) > rhoRefFile='rhoLin_x2.bin',
(PID.TID 0000.0001) > tRefFile='TRefFile.bin',
(PID.TID 0000.0001) > sRef=120*0.,
(PID.TID 0000.0001) > viscAh=1.E6,
(PID.TID 0000.0001) > viscAr=1.E6,
(PID.TID 0000.0001) > no_slip_sides=.FALSE.,
(PID.TID 0000.0001) > no_slip_bottom=.FALSE.,
(PID.TID 0000.0001) > diffKhT=1.E5,
(PID.TID 0000.0001) > diffKrT=1.E5,
(PID.TID 0000.0001) > rotationPeriod=86400.,
(PID.TID 0000.0001) > gravity=9.81,
(PID.TID 0000.0001) > rhoConst=1000.,
(PID.TID 0000.0001) > implicitFreeSurface=.TRUE.,
(PID.TID 0000.0001) > implicitDiffusion=.TRUE.,
(PID.TID 0000.0001) > implicitViscosity=.TRUE.,
(PID.TID 0000.0001) > tempAdvScheme=77,
(PID.TID 0000.0001) > staggerTimeStep=.TRUE.,
(PID.TID 0000.0001) > saltStepping=.FALSE.,
(PID.TID 0000.0001) > eosType='LINEAR',
(PID.TID 0000.0001) > nonHydrostatic=.TRUE.,
(PID.TID 0000.0001) > useNHMTerms=.TRUE.,
(PID.TID 0000.0001) > readBinaryPrec= 64,
(PID.TID 0000.0001) > writeBinaryPrec= 64,
(PID.TID 0000.0001) >#useSingleCpuIO=.TRUE.,
(PID.TID 0000.0001) >#debugLevel=1,
(PID.TID 0000.0001) > /
(PID.TID 0000.0001) >
(PID.TID 0000.0001) ># Elliptic solver parameters
(PID.TID 0000.0001) > &PARM02
(PID.TID 0000.0001) > cg2dMaxIters=1000,
(PID.TID 0000.0001) > cg2dTargetResidual=1.E-13,
(PID.TID 0000.0001) > cg3dMaxIters= 40,
(PID.TID 0000.0001) > cg3dTargetResidual=1.E-13,
(PID.TID 0000.0001) > /
(PID.TID 0000.0001) >
(PID.TID 0000.0001) ># Time stepping parameters
(PID.TID 0000.0001) > &PARM03
(PID.TID 0000.0001) > nIter0=0,
(PID.TID 0000.0001) > nTimeSteps=18,
(PID.TID 0000.0001) > deltaT=300.,
(PID.TID 0000.0001) > abEps=0.1,
(PID.TID 0000.0001) > pChkptFreq=86400.,
(PID.TID 0000.0001) > chkptFreq=0.,
(PID.TID 0000.0001) > dumpFreq=7200.,
(PID.TID 0000.0001) > monitorSelect=2,
(PID.TID 0000.0001) > monitorFreq=1.,
(PID.TID 0000.0001) > /
(PID.TID 0000.0001) >
(PID.TID 0000.0001) ># Gridding parameters
(PID.TID 0000.0001) > &PARM04
(PID.TID 0000.0001) > usingSphericalPolarGrid=.TRUE.,
(PID.TID 0000.0001) > deepAtmosphere=.TRUE.,
(PID.TID 0000.0001) > rSphere=6370.E+3,
(PID.TID 0000.0001) > delR=120*25.E+3,
(PID.TID 0000.0001) > delX=1*10.,
(PID.TID 0000.0001) > delY=160*1.,
(PID.TID 0000.0001) > ygOrigin=-80.,
(PID.TID 0000.0001) > /
(PID.TID 0000.0001) >
(PID.TID 0000.0001) ># Input datasets
(PID.TID 0000.0001) > &PARM05
(PID.TID 0000.0001) > bathyFile='bathymetry.bin',
(PID.TID 0000.0001) > hydrogThetaFile='init_temp.bin',
(PID.TID 0000.0001) > /
(PID.TID 0000.0001) 
(PID.TID 0000.0001)  INI_PARMS ; starts to read PARM01
(PID.TID 0000.0001)  INI_PARMS ; read PARM01 : OK
(PID.TID 0000.0001)  INI_PARMS ; starts to read PARM02
(PID.TID 0000.0001)  INI_PARMS ; read PARM02 : OK
(PID.TID 0000.0001)  INI_PARMS ; starts to read PARM03
(PID.TID 0000.0001)  INI_PARMS ; read PARM03 : OK
(PID.TID 0000.0001)  INI_PARMS ; starts to read PARM04
(PID.TID 0000.0001)  INI_PARMS ; read PARM04 : OK
(PID.TID 0000.0001)  INI_PARMS ; starts to read PARM05
(PID.TID 0000.0001)  INI_PARMS ; read PARM05 : OK
(PID.TID 0000.0001)  INI_PARMS: finished reading file "data"
(PID.TID 0000.0001)  PACKAGES_BOOT: opening data.pkg
(PID.TID 0000.0001)  OPEN_COPY_DATA_FILE: opening file data.pkg
(PID.TID 0000.0001) // =======================================================
(PID.TID 0000.0001) // Parameter file "data.pkg"
(PID.TID 0000.0001) // =======================================================
(PID.TID 0000.0001) ># Packages
(PID.TID 0000.0001) > &PACKAGES
(PID.TID 0000.0001) > useDiagnostics=.TRUE.,
(PID.TID 0000.0001) > /
(PID.TID 0000.0001) 
(PID.TID 0000.0001)  PACKAGES_BOOT: finished reading data.pkg
(PID.TID 0000.0001)  PACKAGES_BOOT: On/Off package Summary
 --------  pkgs with a standard "usePKG" On/Off switch in "data.pkg":  --------
 pkg/diagnostics          compiled   and   used ( useDiagnostics           = T )
 -------- pkgs without standard "usePKG" On/Off switch in "data.pkg":  --------
 pkg/generic_advdiff      compiled   and   used ( useGAD                   = T )
 pkg/mom_common           compiled   and   used ( momStepping              = T )
 pkg/mom_vecinv           compiled but not used ( +vectorInvariantMomentum = F )
 pkg/mom_fluxform         compiled   and   used ( & not vectorInvariantMom = T )
 pkg/monitor              compiled   and   used ( monitorFreq > 0.         = T )
 pkg/debug                compiled but not used ( debugMode                = F )
 pkg/rw                   compiled   and   used
 pkg/mdsio                compiled   and   used
(PID.TID 0000.0001)  PACKAGES_BOOT: End of package Summary
(PID.TID 0000.0001) 
(PID.TID 0000.0001)  DIAGNOSTICS_READPARMS: opening data.diagnostics
(PID.TID 0000.0001)  OPEN_COPY_DATA_FILE: opening file data.diagnostics
(PID.TID 0000.0001) // =======================================================
(PID.TID 0000.0001) // Parameter file "data.diagnostics"
(PID.TID 0000.0001) // =======================================================
(PID.TID 0000.0001) ># Diagnostics Package Choices
(PID.TID 0000.0001) >#--------------------
(PID.TID 0000.0001) >#  dumpAtLast (logical): always write output at the end of simulation (default=F)
(PID.TID 0000.0001) >#  diag_mnc   (logical): write to NetCDF files (default=useMNC)
(PID.TID 0000.0001) >#--for each output-stream:
(PID.TID 0000.0001) >#  fileName(n) : prefix of the output file name (max 80c long) for outp.stream n
(PID.TID 0000.0001) >#  frequency(n):< 0 : write snap-shot output every |frequency| seconds
(PID.TID 0000.0001) >#               > 0 : write time-average output every frequency seconds
(PID.TID 0000.0001) >#  timePhase(n)     : write at time = timePhase + multiple of |frequency|
(PID.TID 0000.0001) >#    averagingFreq  : frequency (in s) for periodic averaging interval
(PID.TID 0000.0001) >#    averagingPhase : phase     (in s) for periodic averaging interval
(PID.TID 0000.0001) >#    repeatCycle    : number of averaging intervals in 1 cycle
(PID.TID 0000.0001) >#  levels(:,n) : list of levels to write to file (Notes: declared as REAL)
(PID.TID 0000.0001) >#                when this entry is missing, select all common levels of this list
(PID.TID 0000.0001) >#  fields(:,n) : list of selected diagnostics fields (8.c) in outp.stream n
(PID.TID 0000.0001) >#                (see "available_diagnostics.log" file for the full list of diags)
(PID.TID 0000.0001) >#  missing_value(n) : missing value for real-type fields in output file "n"
(PID.TID 0000.0001) >#  fileFlags(n)     : specific code (8c string) for output file "n"
(PID.TID 0000.0001) >#--------------------
(PID.TID 0000.0001) > &DIAGNOSTICS_LIST
(PID.TID 0000.0001) ># diag_mnc     = .FALSE.,
(PID.TID 0000.0001) ># dumpAtLast   = .TRUE.,
(PID.TID 0000.0001) >#--
(PID.TID 0000.0001) >  fields(1,1) = 'RHOAnoma',
(PID.TID 0000.0001) >  fileName(1) = 'Rho',
(PID.TID 0000.0001) >  frequency(1) = 86400.,
(PID.TID 0000.0001) >
(PID.TID 0000.0001) >  fields(1,2) = 'PHIHYD  ',
(PID.TID 0000.0001) >  frequency(2) = 86400.,
(PID.TID 0000.0001) >  fileName(2) = 'P0',
(PID.TID 0000.0001) >
(PID.TID 0000.0001) >  fields(1,3) = 'DRHODR  ',
(PID.TID 0000.0001) >  fileName(3) = 'N2',
(PID.TID 0000.0001) >  frequency(3) = 86400.,
(PID.TID 0000.0001) > /
(PID.TID 0000.0001) >
(PID.TID 0000.0001) >#--------------------
(PID.TID 0000.0001) ># Parameter for Diagnostics of per level statistics:
(PID.TID 0000.0001) >#--------------------
(PID.TID 0000.0001) >#  diagSt_mnc (logical): write stat-diags to NetCDF files (default=diag_mnc)
(PID.TID 0000.0001) >#  diagSt_regMaskFile : file containing the region-mask to read-in
(PID.TID 0000.0001) >#  nSetRegMskFile   : number of region-mask sets within the region-mask file
(PID.TID 0000.0001) >#  set_regMask(i)   : region-mask set-index that identifies the region "i"
(PID.TID 0000.0001) >#  val_regMask(i)   : region "i" identifier value in the region mask
(PID.TID 0000.0001) >#--for each output-stream:
(PID.TID 0000.0001) >#  stat_fName(n) : prefix of the output file name (max 80c long) for outp.stream n
(PID.TID 0000.0001) >#  stat_freq(n):< 0 : write snap-shot output every |stat_freq| seconds
(PID.TID 0000.0001) >#               > 0 : write time-average output every stat_freq seconds
(PID.TID 0000.0001) >#  stat_phase(n)    : write at time = stat_phase + multiple of |stat_freq|
(PID.TID 0000.0001) >#  stat_region(:,n) : list of "regions" (default: 1 region only=global)
(PID.TID 0000.0001) >#  stat_fields(:,n) : list of selected diagnostics fields (8.c) in outp.stream n
(PID.TID 0000.0001) >#                (see "available_diagnostics.log" file for the full list of diags)
(PID.TID 0000.0001) >#--------------------
(PID.TID 0000.0001) > &DIAG_STATIS_PARMS
(PID.TID 0000.0001) >#---
(PID.TID 0000.0001) > stat_fields(1:8,1)  = 'ETAN    ','UVEL    ','VVEL    ','WVEL    ',
(PID.TID 0000.0001) >                       'THETA   ','Um_Metr ','Vm_Metr ','Wm_Metr ',
(PID.TID 0000.0001) >  stat_fName(1) = 'dynStDiag',
(PID.TID 0000.0001) >   stat_freq(1) = 1800.,
(PID.TID 0000.0001) > /
(PID.TID 0000.0001) 
(PID.TID 0000.0001) S/R DIAGNOSTICS_READPARMS, read namelist "diagnostics_list": start
(PID.TID 0000.0001) S/R DIAGNOSTICS_READPARMS, read namelist "diagnostics_list": OK
(PID.TID 0000.0001) S/R DIAGNOSTICS_READPARMS, read namelist "DIAG_STATIS_PARMS": start
(PID.TID 0000.0001) S/R DIAGNOSTICS_READPARMS, read namelist "DIAG_STATIS_PARMS": OK
(PID.TID 0000.0001) -----------------------------------------------------
(PID.TID 0000.0001)  DIAGNOSTICS_READPARMS: global parameter summary:
(PID.TID 0000.0001)  diag_dBugLevel = /* level of printed debug messages */
(PID.TID 0000.0001)                       2
(PID.TID 0000.0001)     ;
(PID.TID 0000.0001)  dumpAtLast = /* always write time-ave diags at the end */
(PID.TID 0000.0001)                   F
(PID.TID 0000.0001)     ;
(PID.TID 0000.0001)  diag_mnc =   /* write NetCDF output files */
(PID.TID 0000.0001)                   F
(PID.TID 0000.0001)     ;
(PID.TID 0000.0001)  useMissingValue = /* put MissingValue where mask = 0 */
(PID.TID 0000.0001)                   F
(PID.TID 0000.0001)     ;
(PID.TID 0000.0001)  diagCG_maxIters = /* max number of iters in diag_cg2d */
(PID.TID 0000.0001)                    1000
(PID.TID 0000.0001)     ;
(PID.TID 0000.0001)  diagCG_resTarget = /* residual target for diag_cg2d */
(PID.TID 0000.0001)                 1.000000000000000E-13
(PID.TID 0000.0001)     ;
(PID.TID 0000.0001)  diagCG_pcOffDFac = /* preconditioner off-diagonal factor */
(PID.TID 0000.0001)                 9.611687812379854E-01
(PID.TID 0000.0001)     ;
(PID.TID 0000.0001) -----------------------------------------------------
(PID.TID 0000.0001)  DIAGNOSTICS_READPARMS: active diagnostics summary:
(PID.TID 0000.0001) -----------------------------------------------------
(PID.TID 0000.0001) Creating Output Stream: Rho
(PID.TID 0000.0001) Output Frequency:      86400.000000 ; Phase:           0.000000
(PID.TID 0000.0001)  Averaging Freq.:      86400.000000 , Phase:           0.000000 , Cycle:   1
(PID.TID 0000.0001)  missing value: -9.990000000000E+02
(PID.TID 0000.0001)  Levels:    will be set later
(PID.TID 0000.0001)  Fields:    RHOAnoma
(PID.TID 0000.0001) Creating Output Stream: P0
(PID.TID 0000.0001) Output Frequency:      86400.000000 ; Phase:           0.000000
(PID.TID 0000.0001)  Averaging Freq.:      86400.000000 , Phase:           0.000000 , Cycle:   1
(PID.TID 0000.0001)  missing value: -9.990000000000E+02
(PID.TID 0000.0001)  Levels:    will be set later
(PID.TID 0000.0001)  Fields:    PHIHYD
(PID.TID 0000.0001) Creating Output Stream: N2
(PID.TID 0000.0001) Output Frequency:      86400.000000 ; Phase:           0.000000
(PID.TID 0000.0001)  Averaging Freq.:      86400.000000 , Phase:           0.000000 , Cycle:   1
(PID.TID 0000.0001)  missing value: -9.990000000000E+02
(PID.TID 0000.0001)  Levels:    will be set later
(PID.TID 0000.0001)  Fields:    DRHODR
(PID.TID 0000.0001) -----------------------------------------------------
(PID.TID 0000.0001)  DIAGNOSTICS_READPARMS: statistics diags. summary:
(PID.TID 0000.0001) Creating Stats. Output Stream: dynStDiag
(PID.TID 0000.0001) Output Frequency:       1800.000000 ; Phase:           0.000000
(PID.TID 0000.0001)  Regions:   0
(PID.TID 0000.0001)  Fields:    ETAN     UVEL     VVEL     WVEL     THETA    Um_Metr  Vm_Metr  Wm_Metr
(PID.TID 0000.0001) -----------------------------------------------------
(PID.TID 0000.0001) 
(PID.TID 0000.0001) SET_PARMS: done
(PID.TID 0000.0001) Enter INI_VERTICAL_GRID: setInterFDr=    T ; setCenterDr=    F
(PID.TID 0000.0001) %MON XC_max                       =   5.0000000000000E+00
(PID.TID 0000.0001) %MON XC_min                       =   5.0000000000000E+00
(PID.TID 0000.0001) %MON XC_mean                      =   5.0000000000000E+00
(PID.TID 0000.0001) %MON XC_sd                        =   0.0000000000000E+00
(PID.TID 0000.0001) %MON XG_max                       =   0.0000000000000E+00
(PID.TID 0000.0001) %MON XG_min                       =   0.0000000000000E+00
(PID.TID 0000.0001) %MON XG_mean                      =   0.0000000000000E+00
(PID.TID 0000.0001) %MON XG_sd                        =   0.0000000000000E+00
(PID.TID 0000.0001) %MON DXC_max                      =   1.1117324005452E+06
(PID.TID 0000.0001) %MON DXC_min                      =   2.0260485279198E+05
(PID.TID 0000.0001) %MON DXC_mean                     =   7.8416312620425E+05
(PID.TID 0000.0001) %MON DXC_sd                       =   2.8072575688353E+05
(PID.TID 0000.0001) %MON DXF_max                      =   1.1117324005452E+06
(PID.TID 0000.0001) %MON DXF_min                      =   2.0260485279198E+05
(PID.TID 0000.0001) %MON DXF_mean                     =   7.8416312620425E+05
(PID.TID 0000.0001) %MON DXF_sd                       =   2.8072575688353E+05
(PID.TID 0000.0001) %MON DXG_max                      =   1.1117747335204E+06
(PID.TID 0000.0001) %MON DXG_min                      =   1.9305765645195E+05
(PID.TID 0000.0001) %MON DXG_mean                     =   7.8413326767521E+05
(PID.TID 0000.0001) %MON DXG_sd                       =   2.8078861897602E+05
(PID.TID 0000.0001) %MON DXV_max                      =   1.1117747335204E+06
(PID.TID 0000.0001) %MON DXV_min                      =   1.9305765645195E+05
(PID.TID 0000.0001) %MON DXV_mean                     =   7.8413326767521E+05
(PID.TID 0000.0001) %MON DXV_sd                       =   2.8078861897602E+05
(PID.TID 0000.0001) %MON YC_max                       =   7.9500000000000E+01
(PID.TID 0000.0001) %MON YC_min                       =  -7.9500000000000E+01
(PID.TID 0000.0001) %MON YC_mean                      =   0.0000000000000E+00
(PID.TID 0000.0001) %MON YC_sd                        =   4.6187119416565E+01
(PID.TID 0000.0001) %MON YG_max                       =   7.9000000000000E+01
(PID.TID 0000.0001) %MON YG_min                       =  -8.0000000000000E+01
(PID.TID 0000.0001) %MON YG_mean                      =  -5.0000000000000E-01
(PID.TID 0000.0001) %MON YG_sd                        =   4.6187119416565E+01
(PID.TID 0000.0001) %MON DYC_max                      =   1.1117747335204E+05
(PID.TID 0000.0001) %MON DYC_min                      =   1.1117747335204E+05
(PID.TID 0000.0001) %MON DYC_mean                     =   1.1117747335204E+05
(PID.TID 0000.0001) %MON DYC_sd                       =   2.9103830456734E-11
(PID.TID 0000.0001) %MON DYF_max                      =   1.1117747335204E+05
(PID.TID 0000.0001) %MON DYF_min                      =   1.1117747335204E+05
(PID.TID 0000.0001) %MON DYF_mean                     =   1.1117747335204E+05
(PID.TID 0000.0001) %MON DYF_sd                       =   2.9103830456734E-11
(PID.TID 0000.0001) %MON DYG_max                      =   1.1117747335204E+05
(PID.TID 0000.0001) %MON DYG_min                      =   1.1117747335204E+05
(PID.TID 0000.0001) %MON DYG_mean                     =   1.1117747335204E+05
(PID.TID 0000.0001) %MON DYG_sd                       =   2.9103830456734E-11
(PID.TID 0000.0001) %MON DYU_max                      =   1.1117747335204E+05
(PID.TID 0000.0001) %MON DYU_min                      =   1.1117747335204E+05
(PID.TID 0000.0001) %MON DYU_mean                     =   1.1117747335204E+05
(PID.TID 0000.0001) %MON DYU_sd                       =   2.9103830456734E-11
(PID.TID 0000.0001) %MON RA_max                       =   1.2359803056756E+11
(PID.TID 0000.0001) %MON RA_min                       =   2.2524809726008E+10
(PID.TID 0000.0001) %MON RA_mean                      =   8.7180168532477E+10
(PID.TID 0000.0001) %MON RA_sd                        =   3.1209984222261E+10
(PID.TID 0000.0001) %MON RAW_max                      =   1.2359803056756E+11
(PID.TID 0000.0001) %MON RAW_min                      =   2.2524809726008E+10
(PID.TID 0000.0001) %MON RAW_mean                     =   8.7180168532477E+10
(PID.TID 0000.0001) %MON RAW_sd                       =   3.1209984222261E+10
(PID.TID 0000.0001) %MON RAS_max                      =   1.2360273698104E+11
(PID.TID 0000.0001) %MON RAS_min                      =   2.1463390031403E+10
(PID.TID 0000.0001) %MON RAS_mean                     =   8.7176848978794E+10
(PID.TID 0000.0001) %MON RAS_sd                       =   3.1216972982169E+10
(PID.TID 0000.0001) %MON RAZ_max                      =   1.2360273698104E+11
(PID.TID 0000.0001) %MON RAZ_min                      =   2.1463390031403E+10
(PID.TID 0000.0001) %MON RAZ_mean                     =   8.7176848978794E+10
(PID.TID 0000.0001) %MON RAZ_sd                       =   3.1216972982169E+10
(PID.TID 0000.0001) %MON AngleCS_max                  =   1.0000000000000E+00
(PID.TID 0000.0001) %MON AngleCS_min                  =   1.0000000000000E+00
(PID.TID 0000.0001) %MON AngleCS_mean                 =   1.0000000000000E+00
(PID.TID 0000.0001) %MON AngleCS_sd                   =   0.0000000000000E+00
(PID.TID 0000.0001) %MON AngleSN_max                  =   0.0000000000000E+00
(PID.TID 0000.0001) %MON AngleSN_min                  =   0.0000000000000E+00
(PID.TID 0000.0001) %MON AngleSN_mean                 =   0.0000000000000E+00
(PID.TID 0000.0001) %MON AngleSN_sd                   =   0.0000000000000E+00
(PID.TID 0000.0001)  MDS_READVEC_LOC: open file: TRefFile.bin
(PID.TID 0000.0001) S/R LOAD_REF_FILES: tRef loaded from file: TRefFile.bin
(PID.TID 0000.0001)  MDS_READVEC_LOC: open file: rhoLin_x2.bin
(PID.TID 0000.0001) S/R LOAD_REF_FILES: rho1Ref loaded from file: rhoLin_x2.bin
(PID.TID 0000.0001)  MDS_READ_FIELD: opening global file: bathymetry.bin
(PID.TID 0000.0001) // =======================================================
(PID.TID 0000.0001) // Field Model R_low (ini_masks_etc)
(PID.TID 0000.0001) // CMIN =         -3.000000000000000E+06
(PID.TID 0000.0001) // CMAX =         -3.000000000000000E+06
(PID.TID 0000.0001) // CINT =          0.000000000000000E+00
(PID.TID 0000.0001) // SYMBOLS (CMIN->CMAX): -abcdefghijklmnopqrstuvwxyz+
(PID.TID 0000.0001) //                  0.0: .
(PID.TID 0000.0001) // RANGE I (Lo:Hi:Step):(    -1:     3:     1)
(PID.TID 0000.0001) // RANGE J (Lo:Hi:Step):(   162:    -1:    -1)
(PID.TID 0000.0001) // RANGE K (Lo:Hi:Step):(   1:   1:   1)
(PID.TID 0000.0001) // =======================================================
(PID.TID 0000.0001) // =======================================================
(PID.TID 0000.0001) // END OF FIELD                                          =
(PID.TID 0000.0001) // =======================================================
(PID.TID 0000.0001) 
(PID.TID 0000.0001) // =======================================================
(PID.TID 0000.0001) // Field Model Ro_surf (ini_masks_etc)
(PID.TID 0000.0001) // CMIN =          1.000000000000000E+32
(PID.TID 0000.0001) // CMAX =         -1.000000000000000E+32
(PID.TID 0000.0001) // CINT =          0.000000000000000E+00
(PID.TID 0000.0001) // SYMBOLS (CMIN->CMAX): -abcdefghijklmnopqrstuvwxyz+
(PID.TID 0000.0001) //                  0.0: .
(PID.TID 0000.0001) // RANGE I (Lo:Hi:Step):(    -1:     3:     1)
(PID.TID 0000.0001) // RANGE J (Lo:Hi:Step):(   162:    -1:    -1)
(PID.TID 0000.0001) // RANGE K (Lo:Hi:Step):(   1:   1:   1)
(PID.TID 0000.0001) // =======================================================
(PID.TID 0000.0001) // =======================================================
(PID.TID 0000.0001) // END OF FIELD                                          =
(PID.TID 0000.0001) // =======================================================
(PID.TID 0000.0001) 
(PID.TID 0000.0001) // =======================================================
(PID.TID 0000.0001) // Field hFacC at iteration          0
(PID.TID 0000.0001) // CMIN =          1.000000000000000E+00
(PID.TID 0000.0001) // CMAX =          1.000000000000000E+00
(PID.TID 0000.0001) // CINT =          0.000000000000000E+00
(PID.TID 0000.0001) // SYMBOLS (CMIN->CMAX): -abcdefghijklmnopqrstuvwxyz+
(PID.TID 0000.0001) //                  0.0: .
(PID.TID 0000.0001) // RANGE I (Lo:Hi:Step):(    -1:     3:     1)
(PID.TID 0000.0001) // RANGE J (Lo:Hi:Step):(   162:    -1:    -1)
(PID.TID 0000.0001) // RANGE K (Lo:Hi:Step):(   1:   1:   1)
(PID.TID 0000.0001) // =======================================================
(PID.TID 0000.0001) // =======================================================
(PID.TID 0000.0001) // END OF FIELD                                          =
(PID.TID 0000.0001) // =======================================================
(PID.TID 0000.0001) 
(PID.TID 0000.0001) // =======================================================
(PID.TID 0000.0001) // Field hFacW at iteration          0
(PID.TID 0000.0001) // CMIN =          1.000000000000000E+00
(PID.TID 0000.0001) // CMAX =          1.000000000000000E+00
(PID.TID 0000.0001) // CINT =          0.000000000000000E+00
(PID.TID 0000.0001) // SYMBOLS (CMIN->CMAX): -abcdefghijklmnopqrstuvwxyz+
(PID.TID 0000.0001) //                  0.0: .
(PID.TID 0000.0001) // RANGE I (Lo:Hi:Step):(    -1:     3:     1)
(PID.TID 0000.0001) // RANGE J (Lo:Hi:Step):(   162:    -1:    -1)
(PID.TID 0000.0001) // RANGE K (Lo:Hi:Step):(   1:   1:   1)
(PID.TID 0000.0001) // =======================================================
(PID.TID 0000.0001) // =======================================================
(PID.TID 0000.0001) // END OF FIELD                                          =
(PID.TID 0000.0001) // =======================================================
(PID.TID 0000.0001) 
(PID.TID 0000.0001) // =======================================================
(PID.TID 0000.0001) // Field hFacS at iteration          0
(PID.TID 0000.0001) // CMIN =          1.000000000000000E+00
(PID.TID 0000.0001) // CMAX =          1.000000000000000E+00
(PID.TID 0000.0001) // CINT =          0.000000000000000E+00
(PID.TID 0000.0001) // SYMBOLS (CMIN->CMAX): -abcdefghijklmnopqrstuvwxyz+
(PID.TID 0000.0001) //                  0.0: .
(PID.TID 0000.0001) // RANGE I (Lo:Hi:Step):(    -1:     3:     1)
(PID.TID 0000.0001) // RANGE J (Lo:Hi:Step):(   162:    -1:    -1)
(PID.TID 0000.0001) // RANGE K (Lo:Hi:Step):(   1:   1:   1)
(PID.TID 0000.0001) // =======================================================
(PID.TID 0000.0001) // =======================================================
(PID.TID 0000.0001) // END OF FIELD                                          =
(PID.TID 0000.0001) // =======================================================
(PID.TID 0000.0001) 
(PID.TID 0000.0001) GAD_INIT_FIXED: GAD_OlMinSize=  2  0  1
(PID.TID 0000.0001) 
(PID.TID 0000.0001) // ===================================
(PID.TID 0000.0001) // GAD parameters :
(PID.TID 0000.0001) // ===================================
(PID.TID 0000.0001) tempAdvScheme =   /* Temp. Horiz.Advection scheme selector */
(PID.TID 0000.0001)                      77
(PID.TID 0000.0001)     ;
(PID.TID 0000.0001) tempVertAdvScheme =   /* Temp. Vert. Advection scheme selector */
(PID.TID 0000.0001)                      77
(PID.TID 0000.0001)     ;
(PID.TID 0000.0001) tempMultiDimAdvec =   /* use Muti-Dim Advec method for Temp */
(PID.TID 0000.0001)                   T
(PID.TID 0000.0001)     ;
(PID.TID 0000.0001) tempSOM_Advection = /* use 2nd Order Moment Advection for Temp */
(PID.TID 0000.0001)                   F
(PID.TID 0000.0001)     ;
(PID.TID 0000.0001) AdamsBashforthGt = /* apply Adams-Bashforth extrapolation on Gt */
(PID.TID 0000.0001)                   F
(PID.TID 0000.0001)     ;
(PID.TID 0000.0001) AdamsBashforth_T = /* apply Adams-Bashforth extrapolation on Temp */
(PID.TID 0000.0001)                   F
(PID.TID 0000.0001)     ;
(PID.TID 0000.0001) saltAdvScheme =   /* Salt. Horiz.advection scheme selector */
(PID.TID 0000.0001)                       2
(PID.TID 0000.0001)     ;
(PID.TID 0000.0001) saltVertAdvScheme =   /* Salt. Vert. Advection scheme selector */
(PID.TID 0000.0001)                       2
(PID.TID 0000.0001)     ;
(PID.TID 0000.0001) saltMultiDimAdvec =   /* use Muti-Dim Advec method for Salt */
(PID.TID 0000.0001)                   F
(PID.TID 0000.0001)     ;
(PID.TID 0000.0001) saltSOM_Advection = /* use 2nd Order Moment Advection for Salt */
(PID.TID 0000.0001)                   F
(PID.TID 0000.0001)     ;
(PID.TID 0000.0001) AdamsBashforthGs = /* apply Adams-Bashforth extrapolation on Gs */
(PID.TID 0000.0001)                   F
(PID.TID 0000.0001)     ;
(PID.TID 0000.0001) AdamsBashforth_S = /* apply Adams-Bashforth extrapolation on Salt */
(PID.TID 0000.0001)                   F
(PID.TID 0000.0001)     ;
(PID.TID 0000.0001) // ===================================
(PID.TID 0000.0001) ------------------------------------------------------------
(PID.TID 0000.0001) DIAGNOSTICS_SET_LEVELS: done
(PID.TID 0000.0001)  Total Nb of available Diagnostics: ndiagt=   197
(PID.TID 0000.0001)  write list of available Diagnostics to file: available_diagnostics.log
(PID.TID 0000.0001) SETDIAG: Allocate120 x  1 Levels for Diagnostic #    64 RHOAnoma
(PID.TID 0000.0001) SETDIAG: Allocate120 x  1 Levels for Diagnostic #    71 PHIHYD
(PID.TID 0000.0001) SETDIAG: Allocate120 x  1 Levels for Diagnostic #    78 DRHODR
(PID.TID 0000.0001)   space allocated for all diagnostics:     360 levels
(PID.TID 0000.0001) DIAGNOSTICS_SET_POINTERS: Set levels for Outp.Stream: Rho
(PID.TID 0000.0001)  Levels:       1.   2.   3.   4.   5.   6.   7.   8.   9.  10.  11.  12.  13.  14.  15.  16.  17.  18.  19.  20.
(PID.TID 0000.0001)  Levels:      21.  22.  23.  24.  25.  26.  27.  28.  29.  30.  31.  32.  33.  34.  35.  36.  37.  38.  39.  40.
(PID.TID 0000.0001)  Levels:      41.  42.  43.  44.  45.  46.  47.  48.  49.  50.  51.  52.  53.  54.  55.  56.  57.  58.  59.  60.
(PID.TID 0000.0001)  Levels:      61.  62.  63.  64.  65.  66.  67.  68.  69.  70.  71.  72.  73.  74.  75.  76.  77.  78.  79.  80.
(PID.TID 0000.0001)  Levels:      81.  82.  83.  84.  85.  86.  87.  88.  89.  90.  91.  92.  93.  94.  95.  96.  97.  98.  99. 100.
(PID.TID 0000.0001)  Levels:     101. 102. 103. 104. 105. 106. 107. 108. 109. 110. 111. 112. 113. 114. 115. 116. 117. 118. 119. 120.
(PID.TID 0000.0001) DIAGNOSTICS_SET_POINTERS: Set levels for Outp.Stream: P0
(PID.TID 0000.0001)  Levels:       1.   2.   3.   4.   5.   6.   7.   8.   9.  10.  11.  12.  13.  14.  15.  16.  17.  18.  19.  20.
(PID.TID 0000.0001)  Levels:      21.  22.  23.  24.  25.  26.  27.  28.  29.  30.  31.  32.  33.  34.  35.  36.  37.  38.  39.  40.
(PID.TID 0000.0001)  Levels:      41.  42.  43.  44.  45.  46.  47.  48.  49.  50.  51.  52.  53.  54.  55.  56.  57.  58.  59.  60.
(PID.TID 0000.0001)  Levels:      61.  62.  63.  64.  65.  66.  67.  68.  69.  70.  71.  72.  73.  74.  75.  76.  77.  78.  79.  80.
(PID.TID 0000.0001)  Levels:      81.  82.  83.  84.  85.  86.  87.  88.  89.  90.  91.  92.  93.  94.  95.  96.  97.  98.  99. 100.
(PID.TID 0000.0001)  Levels:     101. 102. 103. 104. 105. 106. 107. 108. 109. 110. 111. 112. 113. 114. 115. 116. 117. 118. 119. 120.
(PID.TID 0000.0001) DIAGNOSTICS_SET_POINTERS: Set levels for Outp.Stream: N2
(PID.TID 0000.0001)  Levels:       1.   2.   3.   4.   5.   6.   7.   8.   9.  10.  11.  12.  13.  14.  15.  16.  17.  18.  19.  20.
(PID.TID 0000.0001)  Levels:      21.  22.  23.  24.  25.  26.  27.  28.  29.  30.  31.  32.  33.  34.  35.  36.  37.  38.  39.  40.
(PID.TID 0000.0001)  Levels:      41.  42.  43.  44.  45.  46.  47.  48.  49.  50.  51.  52.  53.  54.  55.  56.  57.  58.  59.  60.
(PID.TID 0000.0001)  Levels:      61.  62.  63.  64.  65.  66.  67.  68.  69.  70.  71.  72.  73.  74.  75.  76.  77.  78.  79.  80.
(PID.TID 0000.0001)  Levels:      81.  82.  83.  84.  85.  86.  87.  88.  89.  90.  91.  92.  93.  94.  95.  96.  97.  98.  99. 100.
(PID.TID 0000.0001)  Levels:     101. 102. 103. 104. 105. 106. 107. 108. 109. 110. 111. 112. 113. 114. 115. 116. 117. 118. 119. 120.
(PID.TID 0000.0001) DIAGNOSTICS_SET_POINTERS: done, use     360 levels (numDiags =    1200 )
(PID.TID 0000.0001) ------------------------------------------------------------
(PID.TID 0000.0001) DIAGSTATS_SET_REGIONS: define no region
(PID.TID 0000.0001) ------------------------------------------------------------
(PID.TID 0000.0001) SETDIAG: Allocate  1 Levels for Stats-Diag #    23 ETAN
(PID.TID 0000.0001) SETDIAG: Allocate120 Levels for Stats-Diag #    30 UVEL
(PID.TID 0000.0001) SETDIAG: Allocate120 Levels for Stats-Diag #    31 VVEL
(PID.TID 0000.0001) SETDIAG: Allocate120 Levels for Stats-Diag #    32 WVEL
(PID.TID 0000.0001) SETDIAG: Allocate120 Levels for Stats-Diag #    26 THETA
(PID.TID 0000.0001) SETDIAG: Allocate120 Levels for Stats-Diag #   176 Um_Metr
(PID.TID 0000.0001) SETDIAG: Allocate120 Levels for Stats-Diag #   177 Vm_Metr
(PID.TID 0000.0001) SETDIAG: Allocate120 Levels for Stats-Diag #   181 Wm_Metr
(PID.TID 0000.0001)   space allocated for all stats-diags:     841 levels
(PID.TID 0000.0001) DIAGSTATS_SET_POINTERS: done, use     841 levels (diagSt_size=    1200 )
(PID.TID 0000.0001) ------------------------------------------------------------
(PID.TID 0000.0001) %MON fCori_max                    =   1.4300862936153E-04
(PID.TID 0000.0001) %MON fCori_min                    =  -1.4300862936153E-04
(PID.TID 0000.0001) %MON fCori_mean                   =  -5.4210108624275E-21
(PID.TID 0000.0001) %MON fCori_sd                     =   9.6340490564563E-05
(PID.TID 0000.0001) %MON fCoriG_max                   =   1.4277188648533E-04
(PID.TID 0000.0001) %MON fCoriG_min                   =  -1.4323448157692E-04
(PID.TID 0000.0001) %MON fCoriG_mean                  =  -8.9521550985573E-07
(PID.TID 0000.0001) %MON fCoriG_sd                    =   9.6337355282818E-05
(PID.TID 0000.0001) %MON fCoriCos_max                 =   1.4543856626703E-04
(PID.TID 0000.0001) %MON fCoriCos_min                 =   2.6505082782834E-05
(PID.TID 0000.0001) %MON fCoriCos_mean                =   1.0258544298852E-04
(PID.TID 0000.0001) %MON fCoriCos_sd                  =   3.6724981277280E-05
(PID.TID 0000.0001) INI_CG2D: CG2D normalisation factor =  3.3333333333333334E-08
(PID.TID 0000.0001) 
(PID.TID 0000.0001) INI_CG3D: CG3D normalisation factor =  2.0386565637156620E-07
(PID.TID 0000.0001) 
(PID.TID 0000.0001) // =======================================================
(PID.TID 0000.0001) // Model configuration
(PID.TID 0000.0001) // =======================================================
(PID.TID 0000.0001) //
(PID.TID 0000.0001) // "Physical" paramters ( PARM01 in namelist )
(PID.TID 0000.0001) //
(PID.TID 0000.0001) buoyancyRelation = /* Type of relation to get Buoyancy */
(PID.TID 0000.0001)               'OCEANIC'
(PID.TID 0000.0001)     ;
(PID.TID 0000.0001) fluidIsAir   =  /* fluid major constituent is Air */
(PID.TID 0000.0001)                   F
(PID.TID 0000.0001)     ;
(PID.TID 0000.0001) fluidIsWater =  /* fluid major constituent is Water */
(PID.TID 0000.0001)                   T
(PID.TID 0000.0001)     ;
(PID.TID 0000.0001) usingPCoords =  /* use p (or p*) vertical coordinate */
(PID.TID 0000.0001)                   F
(PID.TID 0000.0001)     ;
(PID.TID 0000.0001) usingZCoords =  /* use z (or z*) vertical coordinate */
(PID.TID 0000.0001)                   T
(PID.TID 0000.0001)     ;
(PID.TID 0000.0001) tRef =   /* Reference temperature profile ( oC or K ) */
(PID.TID 0000.0001)   120 @  1.000000000000000E+00              /* K =  1:120 */
(PID.TID 0000.0001)     ;
(PID.TID 0000.0001) sRef =   /* Reference salinity profile ( g/kg ) */
(PID.TID 0000.0001)   120 @  0.000000000000000E+00              /* K =  1:120 */
(PID.TID 0000.0001)     ;
(PID.TID 0000.0001) rhoRef =   /* Density vertical profile from (Ref,sRef)( kg/m^3 ) */
(PID.TID 0000.0001)   120 @  9.998000000000000E+02              /* K =  1:120 */
(PID.TID 0000.0001)     ;
(PID.TID 0000.0001) dBdrRef = /* Vertical grad. of reference buoyancy [(m/s/r)^2] */
(PID.TID 0000.0001)   120 @  0.000000000000000E+00              /* K =  1:120 */
(PID.TID 0000.0001)     ;
(PID.TID 0000.0001) useStrainTensionVisc= /* Use StrainTension Form of Viscous Operator */
(PID.TID 0000.0001)                   F
(PID.TID 0000.0001)     ;
(PID.TID 0000.0001) useVariableVisc = /* Use variable horizontal viscosity */
(PID.TID 0000.0001)                   F
(PID.TID 0000.0001)     ;
(PID.TID 0000.0001) useHarmonicVisc = /* Use harmonic horizontal viscosity */
(PID.TID 0000.0001)                   T
(PID.TID 0000.0001)     ;
(PID.TID 0000.0001) useBiharmonicVisc= /* Use biharmonic horiz.  viscosity */
(PID.TID 0000.0001)                   F
(PID.TID 0000.0001)     ;
(PID.TID 0000.0001) useSmag3D = /* Use isotropic 3-D Smagorinsky viscosity */
(PID.TID 0000.0001)                   F
(PID.TID 0000.0001)     ;
(PID.TID 0000.0001) viscAh  =   /* Lateral harmonic viscosity ( m^2/s ) */
(PID.TID 0000.0001)                 1.000000000000000E+06
(PID.TID 0000.0001)     ;
(PID.TID 0000.0001) viscAhW =   /* Lateral harmonic viscosity in W eq. ( m^2/s ) */
(PID.TID 0000.0001)                 1.000000000000000E+06
(PID.TID 0000.0001)     ;
(PID.TID 0000.0001) viscA4  =   /* Lateral biharmonic viscosity ( m^4/s ) */
(PID.TID 0000.0001)                 0.000000000000000E+00
(PID.TID 0000.0001)     ;
(PID.TID 0000.0001) viscA4W =   /* Lateral biharmonic viscosity in W eq. ( m^2/s ) */
(PID.TID 0000.0001)                 0.000000000000000E+00
(PID.TID 0000.0001)     ;
(PID.TID 0000.0001) no_slip_sides =  /* Viscous BCs: No-slip sides */
(PID.TID 0000.0001)                   F
(PID.TID 0000.0001)     ;
(PID.TID 0000.0001) sideDragFactor = /* side-drag scaling factor (non-dim) */
(PID.TID 0000.0001)                 2.000000000000000E+00
(PID.TID 0000.0001)     ;
(PID.TID 0000.0001) viscArNr = /* vertical profile of vertical viscosity ( m^2/s )*/
(PID.TID 0000.0001)   120 @  1.000000000000000E+06              /* K =  1:120 */
(PID.TID 0000.0001)     ;
(PID.TID 0000.0001) no_slip_bottom =  /* Viscous BCs: No-slip bottom */
(PID.TID 0000.0001)                   F
(PID.TID 0000.0001)     ;
(PID.TID 0000.0001) bottomVisc_pCell = /* Partial-cell in bottom Visc. BC */
(PID.TID 0000.0001)                   F
(PID.TID 0000.0001)     ;
(PID.TID 0000.0001) bottomDragLinear = /* linear bottom-drag coefficient ( m/s ) */
(PID.TID 0000.0001)                 0.000000000000000E+00
(PID.TID 0000.0001)     ;
(PID.TID 0000.0001) bottomDragQuadratic = /* quadratic bottom-drag coefficient (-) */
(PID.TID 0000.0001)                 0.000000000000000E+00
(PID.TID 0000.0001)     ;
(PID.TID 0000.0001) selectBotDragQuadr = /* select quadratic bottom drag options */
(PID.TID 0000.0001)                      -1
(PID.TID 0000.0001)     ;
(PID.TID 0000.0001) diffKhT =   /* Laplacian diffusion of heat laterally ( m^2/s ) */
(PID.TID 0000.0001)                 1.000000000000000E+05
(PID.TID 0000.0001)     ;
(PID.TID 0000.0001) diffK4T =   /* Biharmonic diffusion of heat laterally ( m^4/s ) */
(PID.TID 0000.0001)                 0.000000000000000E+00
(PID.TID 0000.0001)     ;
(PID.TID 0000.0001) diffKhS =   /* Laplacian diffusion of salt laterally ( m^2/s ) */
(PID.TID 0000.0001)                 0.000000000000000E+00
(PID.TID 0000.0001)     ;
(PID.TID 0000.0001) diffK4S =   /* Biharmonic diffusion of salt laterally ( m^4/s ) */
(PID.TID 0000.0001)                 0.000000000000000E+00
(PID.TID 0000.0001)     ;
(PID.TID 0000.0001) diffKrNrT = /* vertical profile of vertical diffusion of Temp ( m^2/s )*/
(PID.TID 0000.0001)   120 @  1.000000000000000E+05              /* K =  1:120 */
(PID.TID 0000.0001)     ;
(PID.TID 0000.0001) diffKrNrS = /* vertical profile of vertical diffusion of Salt ( m^2/s )*/
(PID.TID 0000.0001)   120 @  1.000000000000000E+05              /* K =  1:120 */
(PID.TID 0000.0001)     ;
(PID.TID 0000.0001) diffKrBL79surf = /* Surface diffusion for Bryan and Lewis 79 ( m^2/s ) */
(PID.TID 0000.0001)                 0.000000000000000E+00
(PID.TID 0000.0001)     ;
(PID.TID 0000.0001) diffKrBL79deep = /* Deep diffusion for Bryan and Lewis 1979 ( m^2/s ) */
(PID.TID 0000.0001)                 0.000000000000000E+00
(PID.TID 0000.0001)     ;
(PID.TID 0000.0001) diffKrBL79scl = /* Depth scale for Bryan and Lewis 1979 ( m ) */
(PID.TID 0000.0001)                 2.000000000000000E+02
(PID.TID 0000.0001)     ;
(PID.TID 0000.0001) diffKrBL79Ho = /* Turning depth for Bryan and Lewis 1979 ( m ) */
(PID.TID 0000.0001)                -2.000000000000000E+03
(PID.TID 0000.0001)     ;
(PID.TID 0000.0001) ivdc_kappa = /* Implicit Vertical Diffusivity for Convection ( m^2/s) */
(PID.TID 0000.0001)                 0.000000000000000E+00
(PID.TID 0000.0001)     ;
(PID.TID 0000.0001) hMixCriteria=  /* Criteria for mixed-layer diagnostic */
(PID.TID 0000.0001)                -8.000000000000000E-01
(PID.TID 0000.0001)     ;
(PID.TID 0000.0001) dRhoSmall =  /* Parameter for mixed-layer diagnostic */
(PID.TID 0000.0001)                 1.000000000000000E-06
(PID.TID 0000.0001)     ;
(PID.TID 0000.0001) hMixSmooth=  /* Smoothing parameter for mixed-layer diagnostic */
(PID.TID 0000.0001)                 0.000000000000000E+00
(PID.TID 0000.0001)     ;
(PID.TID 0000.0001) eosType =  /* Type of Equation of State */
(PID.TID 0000.0001)               'LINEAR'
(PID.TID 0000.0001)     ;
(PID.TID 0000.0001) tAlpha = /* Linear EOS thermal expansion coefficient ( 1/oC ) */
(PID.TID 0000.0001)                 2.000000000000000E-04
(PID.TID 0000.0001)     ;
(PID.TID 0000.0001) sBeta  = /* Linear EOS haline contraction coefficient ( 1/(g/kg) ) */
(PID.TID 0000.0001)                 7.400000000000000E-04
(PID.TID 0000.0001)     ;
(PID.TID 0000.0001) rhoNil    = /* Reference density for Linear EOS ( kg/m^3 ) */
(PID.TID 0000.0001)                 9.998000000000000E+02
(PID.TID 0000.0001)     ;
(PID.TID 0000.0001) selectP_inEOS_Zc = /* select pressure to use in EOS (0,1,2,3) */
(PID.TID 0000.0001)                       0
(PID.TID 0000.0001)     0= -g*rhoConst*z ; 1= pRef (from tRef,sRef); 2= Hyd P ; 3= Hyd+NH P
(PID.TID 0000.0001)     ;
(PID.TID 0000.0001) surf_pRef = /* Surface reference pressure ( Pa ) */
(PID.TID 0000.0001)                 1.013250000000000E+05
(PID.TID 0000.0001)     ;
(PID.TID 0000.0001) HeatCapacity_Cp =  /* Specific heat capacity ( J/kg/K ) */
(PID.TID 0000.0001)                 3.994000000000000E+03
(PID.TID 0000.0001)     ;
(PID.TID 0000.0001) celsius2K = /* 0 degree Celsius converted to Kelvin ( K ) */
(PID.TID 0000.0001)                 2.731500000000000E+02
(PID.TID 0000.0001)     ;
(PID.TID 0000.0001) rhoConst  = /* Reference density (Boussinesq)  ( kg/m^3 ) */
(PID.TID 0000.0001)                 1.000000000000000E+03
(PID.TID 0000.0001)     ;
(PID.TID 0000.0001) rhoFacC = /* normalized Reference density @ cell-Center (-) */
(PID.TID 0000.0001)                 1.004000000000000E+00,      /* K =  1 */
(PID.TID 0000.0001)                 1.012000000000000E+00,      /* K =  2 */
(PID.TID 0000.0001)                 1.020000000000000E+00,      /* K =  3 */
(PID.TID 0000.0001)                 1.028000000000000E+00,      /* K =  4 */
(PID.TID 0000.0001)                 1.036000000000000E+00,      /* K =  5 */
(PID.TID 0000.0001)                 1.044000000000000E+00,      /* K =  6 */
(PID.TID 0000.0001)                 1.052000000000000E+00,      /* K =  7 */
(PID.TID 0000.0001)                 1.060000000000000E+00,      /* K =  8 */
(PID.TID 0000.0001)                 1.068000000000000E+00,      /* K =  9 */
(PID.TID 0000.0001)                 1.076000000000000E+00,      /* K = 10 */
(PID.TID 0000.0001)                 1.084000000000000E+00,      /* K = 11 */
(PID.TID 0000.0001)                 1.092000000000000E+00,      /* K = 12 */
(PID.TID 0000.0001)                 1.100000000000000E+00,      /* K = 13 */
(PID.TID 0000.0001)                 1.108000000000000E+00,      /* K = 14 */
(PID.TID 0000.0001)                 1.116000000000000E+00,      /* K = 15 */
(PID.TID 0000.0001)                 1.124000000000000E+00,      /* K = 16 */
(PID.TID 0000.0001)                 1.132000000000000E+00,      /* K = 17 */
(PID.TID 0000.0001)                 1.140000000000000E+00,      /* K = 18 */
(PID.TID 0000.0001)                 1.148000000000000E+00,      /* K = 19 */
(PID.TID 0000.0001)                 1.156000000000000E+00,      /* K = 20 */
(PID.TID 0000.0001)                 1.164000000000000E+00,      /* K = 21 */
(PID.TID 0000.0001)                 1.172000000000000E+00,      /* K = 22 */
(PID.TID 0000.0001)                 1.180000000000000E+00,      /* K = 23 */
(PID.TID 0000.0001)                 1.188000000000000E+00,      /* K = 24 */
(PID.TID 0000.0001)                 1.196000000000000E+00,      /* K = 25 */
(PID.TID 0000.0001)                 1.204000000000000E+00,      /* K = 26 */
(PID.TID 0000.0001)                 1.212000000000000E+00,      /* K = 27 */
(PID.TID 0000.0001)                 1.220000000000000E+00,      /* K = 28 */
(PID.TID 0000.0001)                 1.228000000000000E+00,      /* K = 29 */
(PID.TID 0000.0001)                 1.236000000000000E+00,      /* K = 30 */
(PID.TID 0000.0001)                 1.244000000000000E+00,      /* K = 31 */
(PID.TID 0000.0001)                 1.252000000000000E+00,      /* K = 32 */
(PID.TID 0000.0001)                 1.260000000000000E+00,      /* K = 33 */
(PID.TID 0000.0001)                 1.268000000000000E+00,      /* K = 34 */
(PID.TID 0000.0001)                 1.276000000000000E+00,      /* K = 35 */
(PID.TID 0000.0001)                 1.284000000000000E+00,      /* K = 36 */
(PID.TID 0000.0001)                 1.292000000000000E+00,      /* K = 37 */
(PID.TID 0000.0001)                 1.300000000000000E+00,      /* K = 38 */
(PID.TID 0000.0001)                 1.308000000000000E+00,      /* K = 39 */
(PID.TID 0000.0001)                 1.316000000000000E+00,      /* K = 40 */
(PID.TID 0000.0001)                 1.324000000000000E+00,      /* K = 41 */
(PID.TID 0000.0001)                 1.332000000000000E+00,      /* K = 42 */
(PID.TID 0000.0001)                 1.340000000000000E+00,      /* K = 43 */
(PID.TID 0000.0001)                 1.348000000000000E+00,      /* K = 44 */
(PID.TID 0000.0001)                 1.356000000000000E+00,      /* K = 45 */
(PID.TID 0000.0001)                 1.364000000000000E+00,      /* K = 46 */
(PID.TID 0000.0001)                 1.372000000000000E+00,      /* K = 47 */
(PID.TID 0000.0001)                 1.380000000000000E+00,      /* K = 48 */
(PID.TID 0000.0001)                 1.388000000000000E+00,      /* K = 49 */
(PID.TID 0000.0001)                 1.396000000000000E+00,      /* K = 50 */
(PID.TID 0000.0001)                 1.404000000000000E+00,      /* K = 51 */
(PID.TID 0000.0001)                 1.412000000000000E+00,      /* K = 52 */
(PID.TID 0000.0001)                 1.420000000000000E+00,      /* K = 53 */
(PID.TID 0000.0001)                 1.428000000000000E+00,      /* K = 54 */
(PID.TID 0000.0001)                 1.436000000000000E+00,      /* K = 55 */
(PID.TID 0000.0001)                 1.444000000000000E+00,      /* K = 56 */
(PID.TID 0000.0001)                 1.452000000000000E+00,      /* K = 57 */
(PID.TID 0000.0001)                 1.460000000000000E+00,      /* K = 58 */
(PID.TID 0000.0001)                 1.468000000000000E+00,      /* K = 59 */
(PID.TID 0000.0001)                 1.476000000000000E+00,      /* K = 60 */
(PID.TID 0000.0001)                 1.484000000000000E+00,      /* K = 61 */
(PID.TID 0000.0001)                 1.492000000000000E+00,      /* K = 62 */
(PID.TID 0000.0001)                 1.500000000000000E+00,      /* K = 63 */
(PID.TID 0000.0001)                 1.508000000000000E+00,      /* K = 64 */
(PID.TID 0000.0001)                 1.516000000000000E+00,      /* K = 65 */
(PID.TID 0000.0001)                 1.524000000000000E+00,      /* K = 66 */
(PID.TID 0000.0001)                 1.532000000000000E+00,      /* K = 67 */
(PID.TID 0000.0001)                 1.540000000000000E+00,      /* K = 68 */
(PID.TID 0000.0001)                 1.548000000000000E+00,      /* K = 69 */
(PID.TID 0000.0001)                 1.556000000000000E+00,      /* K = 70 */
(PID.TID 0000.0001)                 1.564000000000000E+00,      /* K = 71 */
(PID.TID 0000.0001)                 1.572000000000000E+00,      /* K = 72 */
(PID.TID 0000.0001)                 1.580000000000000E+00,      /* K = 73 */
(PID.TID 0000.0001)                 1.588000000000000E+00,      /* K = 74 */
(PID.TID 0000.0001)                 1.596000000000000E+00,      /* K = 75 */
(PID.TID 0000.0001)                 1.604000000000000E+00,      /* K = 76 */
(PID.TID 0000.0001)                 1.612000000000000E+00,      /* K = 77 */
(PID.TID 0000.0001)                 1.620000000000000E+00,      /* K = 78 */
(PID.TID 0000.0001)                 1.628000000000000E+00,      /* K = 79 */
(PID.TID 0000.0001)                 1.636000000000000E+00,      /* K = 80 */
(PID.TID 0000.0001)                 1.644000000000000E+00,      /* K = 81 */
(PID.TID 0000.0001)                 1.652000000000000E+00,      /* K = 82 */
(PID.TID 0000.0001)                 1.660000000000000E+00,      /* K = 83 */
(PID.TID 0000.0001)                 1.668000000000000E+00,      /* K = 84 */
(PID.TID 0000.0001)                 1.676000000000000E+00,      /* K = 85 */
(PID.TID 0000.0001)                 1.684000000000000E+00,      /* K = 86 */
(PID.TID 0000.0001)                 1.692000000000000E+00,      /* K = 87 */
(PID.TID 0000.0001)                 1.700000000000000E+00,      /* K = 88 */
(PID.TID 0000.0001)                 1.708000000000000E+00,      /* K = 89 */
(PID.TID 0000.0001)                 1.716000000000000E+00,      /* K = 90 */
(PID.TID 0000.0001)                 1.724000000000000E+00,      /* K = 91 */
(PID.TID 0000.0001)                 1.732000000000000E+00,      /* K = 92 */
(PID.TID 0000.0001)                 1.740000000000000E+00,      /* K = 93 */
(PID.TID 0000.0001)                 1.748000000000000E+00,      /* K = 94 */
(PID.TID 0000.0001)                 1.756000000000000E+00,      /* K = 95 */
(PID.TID 0000.0001)                 1.764000000000000E+00,      /* K = 96 */
(PID.TID 0000.0001)                 1.772000000000000E+00,      /* K = 97 */
(PID.TID 0000.0001)                 1.780000000000000E+00,      /* K = 98 */
(PID.TID 0000.0001)                 1.788000000000000E+00,      /* K = 99 */
(PID.TID 0000.0001)                 1.796000000000000E+00,      /* K =100 */
(PID.TID 0000.0001)                 1.804000000000000E+00,      /* K =101 */
(PID.TID 0000.0001)                 1.812000000000000E+00,      /* K =102 */
(PID.TID 0000.0001)                 1.820000000000000E+00,      /* K =103 */
(PID.TID 0000.0001)                 1.828000000000000E+00,      /* K =104 */
(PID.TID 0000.0001)                 1.836000000000000E+00,      /* K =105 */
(PID.TID 0000.0001)                 1.844000000000000E+00,      /* K =106 */
(PID.TID 0000.0001)                 1.852000000000000E+00,      /* K =107 */
(PID.TID 0000.0001)                 1.860000000000000E+00,      /* K =108 */
(PID.TID 0000.0001)                 1.868000000000000E+00,      /* K =109 */
(PID.TID 0000.0001)                 1.876000000000000E+00,      /* K =110 */
(PID.TID 0000.0001)                 1.884000000000000E+00,      /* K =111 */
(PID.TID 0000.0001)                 1.892000000000000E+00,      /* K =112 */
(PID.TID 0000.0001)                 1.900000000000000E+00,      /* K =113 */
(PID.TID 0000.0001)                 1.908000000000000E+00,      /* K =114 */
(PID.TID 0000.0001)                 1.916000000000000E+00,      /* K =115 */
(PID.TID 0000.0001)                 1.924000000000000E+00,      /* K =116 */
(PID.TID 0000.0001)                 1.932000000000000E+00,      /* K =117 */
(PID.TID 0000.0001)                 1.940000000000000E+00,      /* K =118 */
(PID.TID 0000.0001)                 1.948000000000000E+00,      /* K =119 */
(PID.TID 0000.0001)                 1.956000000000000E+00       /* K =120 */
(PID.TID 0000.0001)     ;
(PID.TID 0000.0001) rhoFacF = /* normalized Reference density @ W-Interface (-) */
(PID.TID 0000.0001)                 1.000000000000000E+00,      /* K =  1 */
(PID.TID 0000.0001)                 1.008000000000000E+00,      /* K =  2 */
(PID.TID 0000.0001)                 1.016000000000000E+00,      /* K =  3 */
(PID.TID 0000.0001)                 1.024000000000000E+00,      /* K =  4 */
(PID.TID 0000.0001)                 1.032000000000000E+00,      /* K =  5 */
(PID.TID 0000.0001)                 1.040000000000000E+00,      /* K =  6 */
(PID.TID 0000.0001)                 1.048000000000000E+00,      /* K =  7 */
(PID.TID 0000.0001)                 1.056000000000000E+00,      /* K =  8 */
(PID.TID 0000.0001)                 1.064000000000000E+00,      /* K =  9 */
(PID.TID 0000.0001)                 1.072000000000000E+00,      /* K = 10 */
(PID.TID 0000.0001)                 1.080000000000000E+00,      /* K = 11 */
(PID.TID 0000.0001)                 1.088000000000000E+00,      /* K = 12 */
(PID.TID 0000.0001)                 1.096000000000000E+00,      /* K = 13 */
(PID.TID 0000.0001)                 1.104000000000000E+00,      /* K = 14 */
(PID.TID 0000.0001)                 1.112000000000000E+00,      /* K = 15 */
(PID.TID 0000.0001)                 1.120000000000000E+00,      /* K = 16 */
(PID.TID 0000.0001)                 1.128000000000000E+00,      /* K = 17 */
(PID.TID 0000.0001)                 1.136000000000000E+00,      /* K = 18 */
(PID.TID 0000.0001)                 1.144000000000000E+00,      /* K = 19 */
(PID.TID 0000.0001)                 1.152000000000000E+00,      /* K = 20 */
(PID.TID 0000.0001)                 1.160000000000000E+00,      /* K = 21 */
(PID.TID 0000.0001)                 1.168000000000000E+00,      /* K = 22 */
(PID.TID 0000.0001)                 1.176000000000000E+00,      /* K = 23 */
(PID.TID 0000.0001)                 1.184000000000000E+00,      /* K = 24 */
(PID.TID 0000.0001)                 1.192000000000000E+00,      /* K = 25 */
(PID.TID 0000.0001)                 1.200000000000000E+00,      /* K = 26 */
(PID.TID 0000.0001)                 1.208000000000000E+00,      /* K = 27 */
(PID.TID 0000.0001)                 1.216000000000000E+00,      /* K = 28 */
(PID.TID 0000.0001)                 1.224000000000000E+00,      /* K = 29 */
(PID.TID 0000.0001)                 1.232000000000000E+00,      /* K = 30 */
(PID.TID 0000.0001)                 1.240000000000000E+00,      /* K = 31 */
(PID.TID 0000.0001)                 1.248000000000000E+00,      /* K = 32 */
(PID.TID 0000.0001)                 1.256000000000000E+00,      /* K = 33 */
(PID.TID 0000.0001)                 1.264000000000000E+00,      /* K = 34 */
(PID.TID 0000.0001)                 1.272000000000000E+00,      /* K = 35 */
(PID.TID 0000.0001)                 1.280000000000000E+00,      /* K = 36 */
(PID.TID 0000.0001)                 1.288000000000000E+00,      /* K = 37 */
(PID.TID 0000.0001)                 1.296000000000000E+00,      /* K = 38 */
(PID.TID 0000.0001)                 1.304000000000000E+00,      /* K = 39 */
(PID.TID 0000.0001)                 1.312000000000000E+00,      /* K = 40 */
(PID.TID 0000.0001)                 1.320000000000000E+00,      /* K = 41 */
(PID.TID 0000.0001)                 1.328000000000000E+00,      /* K = 42 */
(PID.TID 0000.0001)                 1.336000000000000E+00,      /* K = 43 */
(PID.TID 0000.0001)                 1.344000000000000E+00,      /* K = 44 */
(PID.TID 0000.0001)                 1.352000000000000E+00,      /* K = 45 */
(PID.TID 0000.0001)                 1.360000000000000E+00,      /* K = 46 */
(PID.TID 0000.0001)                 1.368000000000000E+00,      /* K = 47 */
(PID.TID 0000.0001)                 1.376000000000000E+00,      /* K = 48 */
(PID.TID 0000.0001)                 1.384000000000000E+00,      /* K = 49 */
(PID.TID 0000.0001)                 1.392000000000000E+00,      /* K = 50 */
(PID.TID 0000.0001)                 1.400000000000000E+00,      /* K = 51 */
(PID.TID 0000.0001)                 1.408000000000000E+00,      /* K = 52 */
(PID.TID 0000.0001)                 1.416000000000000E+00,      /* K = 53 */
(PID.TID 0000.0001)                 1.424000000000000E+00,      /* K = 54 */
(PID.TID 0000.0001)                 1.432000000000000E+00,      /* K = 55 */
(PID.TID 0000.0001)                 1.440000000000000E+00,      /* K = 56 */
(PID.TID 0000.0001)                 1.448000000000000E+00,      /* K = 57 */
(PID.TID 0000.0001)                 1.456000000000000E+00,      /* K = 58 */
(PID.TID 0000.0001)                 1.464000000000000E+00,      /* K = 59 */
(PID.TID 0000.0001)                 1.472000000000000E+00,      /* K = 60 */
(PID.TID 0000.0001)                 1.480000000000000E+00,      /* K = 61 */
(PID.TID 0000.0001)                 1.488000000000000E+00,      /* K = 62 */
(PID.TID 0000.0001)                 1.496000000000000E+00,      /* K = 63 */
(PID.TID 0000.0001)                 1.504000000000000E+00,      /* K = 64 */
(PID.TID 0000.0001)                 1.512000000000000E+00,      /* K = 65 */
(PID.TID 0000.0001)                 1.520000000000000E+00,      /* K = 66 */
(PID.TID 0000.0001)                 1.528000000000000E+00,      /* K = 67 */
(PID.TID 0000.0001)                 1.536000000000000E+00,      /* K = 68 */
(PID.TID 0000.0001)                 1.544000000000000E+00,      /* K = 69 */
(PID.TID 0000.0001)                 1.552000000000000E+00,      /* K = 70 */
(PID.TID 0000.0001)                 1.560000000000000E+00,      /* K = 71 */
(PID.TID 0000.0001)                 1.568000000000000E+00,      /* K = 72 */
(PID.TID 0000.0001)                 1.576000000000000E+00,      /* K = 73 */
(PID.TID 0000.0001)                 1.584000000000000E+00,      /* K = 74 */
(PID.TID 0000.0001)                 1.592000000000000E+00,      /* K = 75 */
(PID.TID 0000.0001)                 1.600000000000000E+00,      /* K = 76 */
(PID.TID 0000.0001)                 1.608000000000000E+00,      /* K = 77 */
(PID.TID 0000.0001)                 1.616000000000000E+00,      /* K = 78 */
(PID.TID 0000.0001)                 1.624000000000000E+00,      /* K = 79 */
(PID.TID 0000.0001)                 1.632000000000000E+00,      /* K = 80 */
(PID.TID 0000.0001)                 1.640000000000000E+00,      /* K = 81 */
(PID.TID 0000.0001)                 1.648000000000000E+00,      /* K = 82 */
(PID.TID 0000.0001)                 1.656000000000000E+00,      /* K = 83 */
(PID.TID 0000.0001)                 1.664000000000000E+00,      /* K = 84 */
(PID.TID 0000.0001)                 1.672000000000000E+00,      /* K = 85 */
(PID.TID 0000.0001)                 1.680000000000000E+00,      /* K = 86 */
(PID.TID 0000.0001)                 1.688000000000000E+00,      /* K = 87 */
(PID.TID 0000.0001)                 1.696000000000000E+00,      /* K = 88 */
(PID.TID 0000.0001)                 1.704000000000000E+00,      /* K = 89 */
(PID.TID 0000.0001)                 1.712000000000000E+00,      /* K = 90 */
(PID.TID 0000.0001)                 1.720000000000000E+00,      /* K = 91 */
(PID.TID 0000.0001)                 1.728000000000000E+00,      /* K = 92 */
(PID.TID 0000.0001)                 1.736000000000000E+00,      /* K = 93 */
(PID.TID 0000.0001)                 1.744000000000000E+00,      /* K = 94 */
(PID.TID 0000.0001)                 1.752000000000000E+00,      /* K = 95 */
(PID.TID 0000.0001)                 1.760000000000000E+00,      /* K = 96 */
(PID.TID 0000.0001)                 1.768000000000000E+00,      /* K = 97 */
(PID.TID 0000.0001)                 1.776000000000000E+00,      /* K = 98 */
(PID.TID 0000.0001)                 1.784000000000000E+00,      /* K = 99 */
(PID.TID 0000.0001)                 1.792000000000000E+00,      /* K =100 */
(PID.TID 0000.0001)                 1.800000000000000E+00,      /* K =101 */
(PID.TID 0000.0001)                 1.808000000000000E+00,      /* K =102 */
(PID.TID 0000.0001)                 1.816000000000000E+00,      /* K =103 */
(PID.TID 0000.0001)                 1.824000000000000E+00,      /* K =104 */
(PID.TID 0000.0001)                 1.832000000000000E+00,      /* K =105 */
(PID.TID 0000.0001)                 1.840000000000000E+00,      /* K =106 */
(PID.TID 0000.0001)                 1.848000000000000E+00,      /* K =107 */
(PID.TID 0000.0001)                 1.856000000000000E+00,      /* K =108 */
(PID.TID 0000.0001)                 1.864000000000000E+00,      /* K =109 */
(PID.TID 0000.0001)                 1.872000000000000E+00,      /* K =110 */
(PID.TID 0000.0001)                 1.880000000000000E+00,      /* K =111 */
(PID.TID 0000.0001)                 1.888000000000000E+00,      /* K =112 */
(PID.TID 0000.0001)                 1.896000000000000E+00,      /* K =113 */
(PID.TID 0000.0001)                 1.904000000000000E+00,      /* K =114 */
(PID.TID 0000.0001)                 1.912000000000000E+00,      /* K =115 */
(PID.TID 0000.0001)                 1.920000000000000E+00,      /* K =116 */
(PID.TID 0000.0001)                 1.928000000000000E+00,      /* K =117 */
(PID.TID 0000.0001)                 1.936000000000000E+00,      /* K =118 */
(PID.TID 0000.0001)                 1.944000000000000E+00,      /* K =119 */
(PID.TID 0000.0001)                 1.952000000000000E+00,      /* K =120 */
(PID.TID 0000.0001)                 1.960000000000000E+00       /* K =121 */
(PID.TID 0000.0001)     ;
(PID.TID 0000.0001) rhoConstFresh = /* Fresh-water reference density ( kg/m^3 ) */
(PID.TID 0000.0001)                 1.000000000000000E+03
(PID.TID 0000.0001)     ;
(PID.TID 0000.0001) gravity =   /* Gravitational acceleration ( m/s^2 ) */
(PID.TID 0000.0001)                 9.810000000000000E+00
(PID.TID 0000.0001)     ;
(PID.TID 0000.0001) gBaro =   /* Barotropic gravity ( m/s^2 ) */
(PID.TID 0000.0001)                 9.810000000000000E+00
(PID.TID 0000.0001)     ;
(PID.TID 0000.0001) gravFacC = /* gravity factor (vs surf.) @ cell-Center (-) */
(PID.TID 0000.0001)   120 @  1.000000000000000E+00              /* K =  1:120 */
(PID.TID 0000.0001)     ;
(PID.TID 0000.0001) gravFacF = /* gravity factor (vs surf.) @ W-Interface (-) */
(PID.TID 0000.0001)   121 @  1.000000000000000E+00              /* K =  1:121 */
(PID.TID 0000.0001)     ;
(PID.TID 0000.0001) rotationPeriod =   /* Rotation Period ( s ) */
(PID.TID 0000.0001)                 8.640000000000000E+04
(PID.TID 0000.0001)     ;
(PID.TID 0000.0001) omega =   /* Angular velocity ( rad/s ) */
(PID.TID 0000.0001)                 7.272205216643040E-05
(PID.TID 0000.0001)     ;
(PID.TID 0000.0001) f0 =   /* Reference coriolis parameter ( 1/s ) */
(PID.TID 0000.0001)                 1.000000000000000E-04
(PID.TID 0000.0001)     ;
(PID.TID 0000.0001) beta =   /* Beta ( 1/(m.s) ) */
(PID.TID 0000.0001)                 9.999999999999999E-12
(PID.TID 0000.0001)     ;
(PID.TID 0000.0001) fPrime =   /* Second coriolis parameter ( 1/s ) */
(PID.TID 0000.0001)                 0.000000000000000E+00
(PID.TID 0000.0001)     ;
(PID.TID 0000.0001) rigidLid =   /* Rigid lid on/off flag */
(PID.TID 0000.0001)                   F
(PID.TID 0000.0001)     ;
(PID.TID 0000.0001) implicitFreeSurface =   /* Implicit free surface on/off flag */
(PID.TID 0000.0001)                   T
(PID.TID 0000.0001)     ;
(PID.TID 0000.0001) freeSurfFac =   /* Implicit free surface factor */
(PID.TID 0000.0001)                 1.000000000000000E+00
(PID.TID 0000.0001)     ;
(PID.TID 0000.0001) implicSurfPress =  /* Surface Pressure implicit factor (0-1) */
(PID.TID 0000.0001)                 1.000000000000000E+00
(PID.TID 0000.0001)     ;
(PID.TID 0000.0001) implicDiv2DFlow =  /* Barot. Flow Div. implicit factor (0-1) */
(PID.TID 0000.0001)                 1.000000000000000E+00
(PID.TID 0000.0001)     ;
(PID.TID 0000.0001) uniformLin_PhiSurf = /* use uniform Bo_surf on/off flag */
(PID.TID 0000.0001)                   T
(PID.TID 0000.0001)     ;
(PID.TID 0000.0001) uniformFreeSurfLev = /* free-surface level-index is uniform */
(PID.TID 0000.0001)                   T
(PID.TID 0000.0001)     ;
(PID.TID 0000.0001) sIceLoadFac =  /* scale factor for sIceLoad (0-1) */
(PID.TID 0000.0001)                 1.000000000000000E+00
(PID.TID 0000.0001)     ;
(PID.TID 0000.0001) hFacMin =   /* minimum partial cell factor (hFac) */
(PID.TID 0000.0001)                 1.000000000000000E+00
(PID.TID 0000.0001)     ;
(PID.TID 0000.0001) hFacMinDr = /* minimum partial cell thickness ( m) */
(PID.TID 0000.0001)                 0.000000000000000E+00
(PID.TID 0000.0001)     ;
(PID.TID 0000.0001) exactConserv =  /* Exact Volume Conservation on/off flag */
(PID.TID 0000.0001)                   F
(PID.TID 0000.0001)     ;
(PID.TID 0000.0001) linFSConserveTr = /* Tracer correction for Lin Free Surface on/off flag */
(PID.TID 0000.0001)                   F
(PID.TID 0000.0001)     ;
(PID.TID 0000.0001) nonlinFreeSurf = /* Non-linear Free Surf. options (-1,0,1,2,3)*/
(PID.TID 0000.0001)                       0
(PID.TID 0000.0001)      -1,0= Off ; 1,2,3= On, 2=+rescale gU,gV, 3=+update cg2d solv.
(PID.TID 0000.0001)     ;
(PID.TID 0000.0001) hFacInf =   /* lower threshold for hFac (nonlinFreeSurf only)*/
(PID.TID 0000.0001)                 2.000000000000000E-01
(PID.TID 0000.0001)     ;
(PID.TID 0000.0001) hFacSup =   /* upper threshold for hFac (nonlinFreeSurf only)*/
(PID.TID 0000.0001)                 2.000000000000000E+00
(PID.TID 0000.0001)     ;
(PID.TID 0000.0001) select_rStar = /* r* Vertical coord. options (=0 r coord.; >0 uses r*)*/
(PID.TID 0000.0001)                       0
(PID.TID 0000.0001)     ;
(PID.TID 0000.0001) useRealFreshWaterFlux = /* Real Fresh Water Flux on/off flag*/
(PID.TID 0000.0001)                   F
(PID.TID 0000.0001)     ;
(PID.TID 0000.0001) temp_EvPrRn = /* Temp. of Evap/Prec/R (UNSET=use local T)(oC)*/
(PID.TID 0000.0001)                 1.234567000000000E+05
(PID.TID 0000.0001)     ;
(PID.TID 0000.0001) salt_EvPrRn = /* Salin. of Evap/Prec/R (UNSET=use local S)(g/kg)*/
(PID.TID 0000.0001)                 0.000000000000000E+00
(PID.TID 0000.0001)     ;
(PID.TID 0000.0001) selectAddFluid = /* option for mass source/sink of fluid (=0: off) */
(PID.TID 0000.0001)                       0
(PID.TID 0000.0001)     ;
(PID.TID 0000.0001) temp_addMass = /* Temp. of addMass array (UNSET=use local T)(oC)*/
(PID.TID 0000.0001)                 1.234567000000000E+05
(PID.TID 0000.0001)     ;
(PID.TID 0000.0001) salt_addMass = /* Salin. of addMass array (UNSET=use local S)(g/kg)*/
(PID.TID 0000.0001)                 0.000000000000000E+00
(PID.TID 0000.0001)     ;
(PID.TID 0000.0001) convertFW2Salt = /* convert F.W. Flux to Salt Flux (-1=use local S)(g/kg)*/
(PID.TID 0000.0001)                 3.500000000000000E+01
(PID.TID 0000.0001)     ;
(PID.TID 0000.0001) use3Dsolver = /* use 3-D pressure solver on/off flag */
(PID.TID 0000.0001)                   T
(PID.TID 0000.0001)     ;
(PID.TID 0000.0001) nonHydrostatic =  /* Non-Hydrostatic on/off flag */
(PID.TID 0000.0001)                   T
(PID.TID 0000.0001)     ;
(PID.TID 0000.0001) nh_Am2 = /* Non-Hydrostatic terms scaling factor */
(PID.TID 0000.0001)                 1.000000000000000E+00
(PID.TID 0000.0001)     ;
(PID.TID 0000.0001) implicitNHPress = /* Non-Hyd Pressure implicit factor (0-1)*/
(PID.TID 0000.0001)                 1.000000000000000E+00
(PID.TID 0000.0001)     ;
(PID.TID 0000.0001) selectNHfreeSurf = /* Non-Hyd (free-)Surface option */
(PID.TID 0000.0001)                       0
(PID.TID 0000.0001)     ;
(PID.TID 0000.0001) quasiHydrostatic = /* Quasi-Hydrostatic on/off flag */
(PID.TID 0000.0001)                   F
(PID.TID 0000.0001)     ;
(PID.TID 0000.0001) calc_wVelocity = /* vertical velocity calculation on/off flag */
(PID.TID 0000.0001)                   T
(PID.TID 0000.0001)     ;
(PID.TID 0000.0001) momStepping =  /* Momentum equation on/off flag */
(PID.TID 0000.0001)                   T
(PID.TID 0000.0001)     ;
(PID.TID 0000.0001) vectorInvariantMomentum= /* Vector-Invariant Momentum on/off */
(PID.TID 0000.0001)                   F
(PID.TID 0000.0001)     ;
(PID.TID 0000.0001) momAdvection =  /* Momentum advection on/off flag */
(PID.TID 0000.0001)                   T
(PID.TID 0000.0001)     ;
(PID.TID 0000.0001) momViscosity =  /* Momentum viscosity on/off flag */
(PID.TID 0000.0001)                   T
(PID.TID 0000.0001)     ;
(PID.TID 0000.0001) momImplVertAdv= /* Momentum implicit vert. advection on/off*/
(PID.TID 0000.0001)                   F
(PID.TID 0000.0001)     ;
(PID.TID 0000.0001) implicitViscosity = /* Implicit viscosity on/off flag */
(PID.TID 0000.0001)                   T
(PID.TID 0000.0001)     ;
(PID.TID 0000.0001) selectImplicitDrag= /* Implicit bot Drag options (0,1,2)*/
(PID.TID 0000.0001)                       0
(PID.TID 0000.0001)     0= Expl. ; 1= Impl. on provis. Vel ; 2= Fully Impl (with surf.P)
(PID.TID 0000.0001)     ;
(PID.TID 0000.0001) selectMetricTerms= /* Scheme selector for Horizontal Metric Terms */
(PID.TID 0000.0001)                       1
(PID.TID 0000.0001)    = 0 : Off (ignore Spherical/Cylindrical Metric Terms)
(PID.TID 0000.0001)    = 1 : original discretization
(PID.TID 0000.0001)    = 2 : using (Spherical) grid-spacing
(PID.TID 0000.0001)    = 3 : as 2 but gU-Metric inside Advection
(PID.TID 0000.0001)     ;
(PID.TID 0000.0001) useNHMTerms = /* Non-Hydrostatic Metric-Terms on/off */
(PID.TID 0000.0001)                   T
(PID.TID 0000.0001)     ;
(PID.TID 0000.0001) useCoriolis =  /* Coriolis on/off flag */
(PID.TID 0000.0001)                   T
(PID.TID 0000.0001)     ;
(PID.TID 0000.0001) useCDscheme =  /* CD scheme on/off flag */
(PID.TID 0000.0001)                   F
(PID.TID 0000.0001)     ;
(PID.TID 0000.0001) selectCoriMap = /* Coriolis Map options (0,1,2,3)*/
(PID.TID 0000.0001)                       2
(PID.TID 0000.0001)     0= f-Plane ; 1= Beta-Plane ; 2= Spherical ; 3= read from file
(PID.TID 0000.0001)     ;
(PID.TID 0000.0001) select3dCoriScheme= /* Scheme selector for 3-D Coriolis-Term */
(PID.TID 0000.0001)                       1
(PID.TID 0000.0001)    = 0 : Off (ignore 3-D Coriolis Terms in Omega.Cos(Lat) )
(PID.TID 0000.0001)    = 1 : original discretization ; = 2 : using averaged Transport
(PID.TID 0000.0001)    = 3 : same as 2 with hFac in gW_Cor
(PID.TID 0000.0001)     ;
(PID.TID 0000.0001) selectCoriScheme= /* Scheme selector for Coriolis-Term */
(PID.TID 0000.0001)                       0
(PID.TID 0000.0001)    = 0 : original discretization (simple averaging, no hFac)
(PID.TID 0000.0001)    = 1 : Wet-point averaging (Jamar & Ozer 1986)
(PID.TID 0000.0001)    = 2 : energy conserving scheme (no hFac weight)
(PID.TID 0000.0001)    = 3 : energy conserving scheme using Wet-point averaging
(PID.TID 0000.0001)    = 4 : hFac weighted average (Angular Mom. conserving)
(PID.TID 0000.0001)     ;
(PID.TID 0000.0001) momForcing =  /* Momentum forcing on/off flag */
(PID.TID 0000.0001)                   T
(PID.TID 0000.0001)     ;
(PID.TID 0000.0001) momTidalForcing = /* Momentum Tidal forcing on/off flag */
(PID.TID 0000.0001)                   T
(PID.TID 0000.0001)     ;
(PID.TID 0000.0001) momPressureForcing =  /* Momentum pressure term on/off flag */
(PID.TID 0000.0001)                   T
(PID.TID 0000.0001)     ;
(PID.TID 0000.0001) implicitIntGravWave= /* Implicit Internal Gravity Wave flag */
(PID.TID 0000.0001)                   F
(PID.TID 0000.0001)     ;
(PID.TID 0000.0001) staggerTimeStep =    /* Stagger time stepping on/off flag */
(PID.TID 0000.0001)                   T
(PID.TID 0000.0001)     ;
(PID.TID 0000.0001) doResetHFactors = /* reset thickness factors @ each time-step */
(PID.TID 0000.0001)                   F
(PID.TID 0000.0001)     ;
(PID.TID 0000.0001) multiDimAdvection =  /* enable/disable Multi-Dim Advection */
(PID.TID 0000.0001)                   T
(PID.TID 0000.0001)     ;
(PID.TID 0000.0001) useMultiDimAdvec =   /* Multi-Dim Advection is/is-not used */
(PID.TID 0000.0001)                   T
(PID.TID 0000.0001)     ;
(PID.TID 0000.0001) implicitDiffusion = /* Implicit Diffusion on/off flag */
(PID.TID 0000.0001)                   T
(PID.TID 0000.0001)     ;
(PID.TID 0000.0001) tempStepping =  /* Temperature equation on/off flag */
(PID.TID 0000.0001)                   T
(PID.TID 0000.0001)     ;
(PID.TID 0000.0001) tempAdvection = /* Temperature advection on/off flag */
(PID.TID 0000.0001)                   T
(PID.TID 0000.0001)     ;
(PID.TID 0000.0001) tempImplVertAdv = /* Temp. implicit vert. advection on/off */
(PID.TID 0000.0001)                   F
(PID.TID 0000.0001)     ;
(PID.TID 0000.0001) tempForcing  =  /* Temperature forcing on/off flag */
(PID.TID 0000.0001)                   T
(PID.TID 0000.0001)     ;
(PID.TID 0000.0001) doThetaClimRelax = /* apply SST relaxation on/off flag */
(PID.TID 0000.0001)                   F
(PID.TID 0000.0001)     ;
(PID.TID 0000.0001) tempIsActiveTr = /* Temp. is a dynamically Active Tracer */
(PID.TID 0000.0001)                   T
(PID.TID 0000.0001)     ;
(PID.TID 0000.0001) saltStepping =  /* Salinity equation on/off flag */
(PID.TID 0000.0001)                   F
(PID.TID 0000.0001)     ;
(PID.TID 0000.0001) saltAdvection = /* Salinity advection on/off flag */
(PID.TID 0000.0001)                   F
(PID.TID 0000.0001)     ;
(PID.TID 0000.0001) saltImplVertAdv = /* Sali. implicit vert. advection on/off */
(PID.TID 0000.0001)                   F
(PID.TID 0000.0001)     ;
(PID.TID 0000.0001) saltForcing  =  /* Salinity forcing on/off flag */
(PID.TID 0000.0001)                   F
(PID.TID 0000.0001)     ;
(PID.TID 0000.0001) doSaltClimRelax = /* apply SSS relaxation on/off flag */
(PID.TID 0000.0001)                   F
(PID.TID 0000.0001)     ;
(PID.TID 0000.0001) saltIsActiveTr = /* Salt  is a dynamically Active Tracer */
(PID.TID 0000.0001)                   F
(PID.TID 0000.0001)     ;
(PID.TID 0000.0001)  readBinaryPrec = /* Precision used for reading binary files */
(PID.TID 0000.0001)                      64
(PID.TID 0000.0001)     ;
(PID.TID 0000.0001) writeBinaryPrec = /* Precision used for writing binary files */
(PID.TID 0000.0001)                      64
(PID.TID 0000.0001)     ;
(PID.TID 0000.0001)  rwSuffixType =   /* select format of mds file suffix */
(PID.TID 0000.0001)                       0
(PID.TID 0000.0001)    = 0 : myIter (I10.10) ;   = 1 : 100*myTime (100th sec) ;
(PID.TID 0000.0001)    = 2 : myTime (seconds);   = 3 : myTime/360 (10th of hr);
(PID.TID 0000.0001)    = 4 : myTime/3600 (hours)
(PID.TID 0000.0001)     ;
(PID.TID 0000.0001)  globalFiles = /* write "global" (=not per tile) files */
(PID.TID 0000.0001)                   F
(PID.TID 0000.0001)     ;
(PID.TID 0000.0001)  useSingleCpuIO = /* only master MPI process does I/O */
(PID.TID 0000.0001)                   F
(PID.TID 0000.0001)     ;
(PID.TID 0000.0001)  useSingleCpuInput = /* only master process reads input */
(PID.TID 0000.0001)                   F
(PID.TID 0000.0001)     ;
(PID.TID 0000.0001) /* debLev[*]  : level of debug & auxiliary message printing */
(PID.TID 0000.0001) debLevZero =  0 ; /* level of disabled aux. msg printing */
(PID.TID 0000.0001)    debLevA =  1 ; /* level of minimum  aux. msg printing */
(PID.TID 0000.0001)    debLevB =  2 ; /* level of low aux. print (report read-file opening)*/
(PID.TID 0000.0001)    debLevC =  3 ; /* level of moderate debug prt (most pkgs debug msg) */
(PID.TID 0000.0001)    debLevD =  4 ; /* level of enhanced debug prt (add DEBUG_STATS prt) */
(PID.TID 0000.0001)    debLevE =  5 ; /* level of extensive debug printing */
(PID.TID 0000.0001) debugLevel =  /* select debug printing level */
(PID.TID 0000.0001)                       2
[...]
(PID.TID 0000.0001) %MON trAdv_CFL_u_max              =   1.8781697675358E-07
(PID.TID 0000.0001) %MON trAdv_CFL_v_max              =   2.4055573696686E-06
(PID.TID 0000.0001) %MON trAdv_CFL_w_max              =   1.4779015983757E-05
(PID.TID 0000.0001) %MON advcfl_uvel_max              =   1.8744603994704E-07
(PID.TID 0000.0001) %MON advcfl_vvel_max              =   2.3079669226052E-06
(PID.TID 0000.0001) %MON advcfl_wvel_max              =   1.4792697628210E-05
(PID.TID 0000.0001) %MON advcfl_W_hf_max              =   1.4792697628210E-05
(PID.TID 0000.0001) %MON pe_b_mean                    =   1.3010521934088E-10
(PID.TID 0000.0001) %MON ke_max                       =   8.2774821248249E-07
(PID.TID 0000.0001) %MON ke_mean                      =   4.8728688897716E-08
(PID.TID 0000.0001) %MON ke_vol                       =   3.4820518350516E+19
(PID.TID 0000.0001) %MON vort_r_min                   =  -4.0884448746156E-09
(PID.TID 0000.0001) %MON vort_r_max                   =   3.0069089341004E-09
(PID.TID 0000.0001) %MON vort_a_mean                  =   7.7787489545026E-20
(PID.TID 0000.0001) %MON vort_a_sd                    =   8.2567010674606E-05
(PID.TID 0000.0001) %MON vort_p_mean                  =   7.7985587590087E-20
(PID.TID 0000.0001) %MON vort_p_sd                    =   8.3918502777528E-05
(PID.TID 0000.0001) %MON surfExpan_theta_mean         =  -5.8636927697832E-12
(PID.TID 0000.0001) %MON surfExpan_salt_mean          =   0.0000000000000E+00
(PID.TID 0000.0001) // =======================================================
(PID.TID 0000.0001) // End MONITOR dynamic field statistics
(PID.TID 0000.0001) // =======================================================
 cg2d: Sum(rhs),rhsMax =   4.77063122465704E-05  5.08153384353535E-01
(PID.TID 0000.0001)      cg2d_init_res =   4.00398358502457E-02
(PID.TID 0000.0001)      cg2d_iters(min,last) =      -1     101
(PID.TID 0000.0001)      cg2d_last_res =   7.01426730176563E-14
 cg3d: Sum(rhs),rhsMax =   3.90355933341247E-13  3.04367919741895E-02
(PID.TID 0000.0001)      cg3d_init_res =   3.05158555836332E-01
(PID.TID 0000.0001)      cg3d_iters (last) =                 40
(PID.TID 0000.0001)      cg3d_last_res =   1.51912466167582E-04
(PID.TID 0000.0001) // =======================================================
(PID.TID 0000.0001) // Begin MONITOR dynamic field statistics
(PID.TID 0000.0001) // =======================================================
(PID.TID 0000.0001) %MON time_tsnumber                =                    18
(PID.TID 0000.0001) %MON time_secondsf                =   5.4000000000000E+03
(PID.TID 0000.0001) %MON dynstat_eta_max              =   2.2308598320875E-02
(PID.TID 0000.0001) %MON dynstat_eta_min              =  -1.7983300163629E-02
(PID.TID 0000.0001) %MON dynstat_eta_mean             =  -4.7076224852171E-06
(PID.TID 0000.0001) %MON dynstat_eta_sd               =   8.1051369974962E-03
(PID.TID 0000.0001) %MON dynstat_eta_del2             =   1.4158650335154E-03
(PID.TID 0000.0001) %MON dynstat_uvel_max             =   4.0349586552341E-04
(PID.TID 0000.0001) %MON dynstat_uvel_min             =  -3.7912923223024E-04
(PID.TID 0000.0001) %MON dynstat_uvel_mean            =  -4.1152641242645E-08
(PID.TID 0000.0001) %MON dynstat_uvel_sd              =   7.9602744531955E-05
(PID.TID 0000.0001) %MON dynstat_uvel_del2            =   8.0755509993539E-07
(PID.TID 0000.0001) %MON dynstat_vvel_max             =   8.7366686230667E-04
(PID.TID 0000.0001) %MON dynstat_vvel_min             =  -7.4191615094326E-04
(PID.TID 0000.0001) %MON dynstat_vvel_mean            =  -1.9577667753323E-07
(PID.TID 0000.0001) %MON dynstat_vvel_sd              =   1.5687293730558E-04
(PID.TID 0000.0001) %MON dynstat_vvel_del2            =   1.7100558604593E-06
(PID.TID 0000.0001) %MON dynstat_wvel_max             =   1.0335413791779E-03
(PID.TID 0000.0001) %MON dynstat_wvel_min             =  -1.2638520332132E-03
(PID.TID 0000.0001) %MON dynstat_wvel_mean            =   1.1980321101101E-20
(PID.TID 0000.0001) %MON dynstat_wvel_sd              =   2.6866005614764E-04
(PID.TID 0000.0001) %MON dynstat_wvel_del2            =   3.7014448529141E-06
(PID.TID 0000.0001) %MON dynstat_theta_max            =   1.1578986684757E+04
(PID.TID 0000.0001) %MON dynstat_theta_min            =   1.1578985895121E+04
(PID.TID 0000.0001) %MON dynstat_theta_mean           =   1.1578986295439E+04
(PID.TID 0000.0001) %MON dynstat_theta_sd             =   1.2100339730667E-04
(PID.TID 0000.0001) %MON dynstat_theta_del2           =   1.9024020585756E-06
(PID.TID 0000.0001) %MON dynstat_salt_max             =   0.0000000000000E+00
(PID.TID 0000.0001) %MON dynstat_salt_min             =   0.0000000000000E+00
(PID.TID 0000.0001) %MON dynstat_salt_mean            =   0.0000000000000E+00
(PID.TID 0000.0001) %MON dynstat_salt_sd              =   0.0000000000000E+00
(PID.TID 0000.0001) %MON dynstat_salt_del2            =   0.0000000000000E+00
(PID.TID 0000.0001) %MON trAdv_CFL_u_max              =   2.0488992272209E-07
(PID.TID 0000.0001) %MON trAdv_CFL_v_max              =   2.4318845191010E-06
(PID.TID 0000.0001) %MON trAdv_CFL_w_max              =   1.5152197282265E-05
(PID.TID 0000.0001) %MON advcfl_uvel_max              =   2.0448526700385E-07
(PID.TID 0000.0001) %MON advcfl_vvel_max              =   2.3574924918654E-06
(PID.TID 0000.0001) %MON advcfl_wvel_max              =   1.5166224398558E-05
(PID.TID 0000.0001) %MON advcfl_W_hf_max              =   1.5166224398558E-05
(PID.TID 0000.0001) %MON pe_b_mean                    =   1.2866411899460E-10
(PID.TID 0000.0001) %MON ke_max                       =   8.7769810715807E-07
(PID.TID 0000.0001) %MON ke_mean                      =   5.1441759313571E-08
(PID.TID 0000.0001) %MON ke_vol                       =   3.4820518350516E+19
(PID.TID 0000.0001) %MON vort_r_min                   =  -4.3946300831856E-09
(PID.TID 0000.0001) %MON vort_r_max                   =   3.2018857129832E-09
(PID.TID 0000.0001) %MON vort_a_mean                  =   2.6926438688663E-20
(PID.TID 0000.0001) %MON vort_a_sd                    =   8.2567010673800E-05
(PID.TID 0000.0001) %MON vort_p_mean                  =   2.6995011088876E-20
(PID.TID 0000.0001) %MON vort_p_sd                    =   8.3918502897768E-05
(PID.TID 0000.0001) %MON surfExpan_theta_mean         =  -6.7705733746701E-12
(PID.TID 0000.0001) %MON surfExpan_salt_mean          =   0.0000000000000E+00
(PID.TID 0000.0001) // =======================================================
(PID.TID 0000.0001) // End MONITOR dynamic field statistics
(PID.TID 0000.0001) // =======================================================
 Compute Stats, Diag. #    23 "ETAN    " (list#  1) Parms "SM      M1      ", vol(  0 )= 8.342E+13
 Compute Stats, Diag. #    30 "UVEL    " (list#  1) Parms "UUR     MR      ", vol(  0 )= 2.503E+20
 Compute Stats, Diag. #    31 "VVEL    " (list#  1) Parms "VVR     MR      ", vol(  0 )= 2.498E+20
 Compute Stats, Diag. #    32 "WVEL    " (list#  1) Parms "WM      LR      ", vol(  0 )= 2.492E+20
 Compute Stats, Diag. #    26 "THETA   " (list#  1) Parms "SMR     MR      ", vol(  0 )= 2.503E+20
 Compute Stats, Diag. #   176 "Um_Metr " (list#  1) Parms "UUR     MR      ", vol(  0 )= 2.503E+20
 Compute Stats, Diag. #   177 "Vm_Metr " (list#  1) Parms "VVR     MR      ", vol(  0 )= 2.498E+20
 Compute Stats, Diag. #   181 "Wm_Metr " (list#  1) Parms "WMr     LR      ", vol(  0 )= 2.482E+20
(PID.TID 0000.0001) DIAGSTATS_CLOSE_IO: close file: dynStDiag.0000000000.txt , unit=     9
(PID.TID 0000.0001) %CHECKPOINT        18 ckptA
(PID.TID 0000.0001)   Seconds in section "ALL                    [THE_MODEL_MAIN]":
(PID.TID 0000.0001)           User time:   17.577503687469289
(PID.TID 0000.0001)         System time:   5.6441000429913402E-002
(PID.TID 0000.0001)     Wall clock time:   17.667124032974243
(PID.TID 0000.0001)          No. starts:           1
(PID.TID 0000.0001)           No. stops:           1
(PID.TID 0000.0001)   Seconds in section "INITIALISE_FIXED       [THE_MODEL_MAIN]":
(PID.TID 0000.0001)           User time:  0.10271800006739795
(PID.TID 0000.0001)         System time:   2.3989000124856830E-002
(PID.TID 0000.0001)     Wall clock time:  0.13862204551696777
(PID.TID 0000.0001)          No. starts:           1
(PID.TID 0000.0001)           No. stops:           1
(PID.TID 0000.0001)   Seconds in section "THE_MAIN_LOOP          [THE_MODEL_MAIN]":
(PID.TID 0000.0001)           User time:   17.474754057824612
(PID.TID 0000.0001)         System time:   3.2434999942779541E-002
(PID.TID 0000.0001)     Wall clock time:   17.528465986251831
(PID.TID 0000.0001)          No. starts:           1
(PID.TID 0000.0001)           No. stops:           1
(PID.TID 0000.0001)   Seconds in section "INITIALISE_VARIA    [THE_MAIN_LOOP]":
(PID.TID 0000.0001)           User time:   9.2969000339508057E-002
(PID.TID 0000.0001)         System time:   2.0267000421881676E-002
(PID.TID 0000.0001)     Wall clock time:  0.13275003433227539
(PID.TID 0000.0001)          No. starts:           1
(PID.TID 0000.0001)           No. stops:           1
(PID.TID 0000.0001)   Seconds in section "MAIN LOOP           [THE_MAIN_LOOP]":
(PID.TID 0000.0001)           User time:   17.381762430071831
(PID.TID 0000.0001)         System time:   1.2164000421762466E-002
(PID.TID 0000.0001)     Wall clock time:   17.395690917968750
(PID.TID 0000.0001)          No. starts:           1
(PID.TID 0000.0001)           No. stops:           1
(PID.TID 0000.0001)   Seconds in section "MAIN_DO_LOOP        [THE_MAIN_LOOP]":
(PID.TID 0000.0001)           User time:   17.381607532501221
(PID.TID 0000.0001)         System time:   1.2161999940872192E-002
(PID.TID 0000.0001)     Wall clock time:   17.395533084869385
(PID.TID 0000.0001)          No. starts:          18
(PID.TID 0000.0001)           No. stops:          18
(PID.TID 0000.0001)   Seconds in section "FORWARD_STEP        [MAIN_DO_LOOP]":
(PID.TID 0000.0001)           User time:   17.381234675645828
(PID.TID 0000.0001)         System time:   1.2161001563072205E-002
(PID.TID 0000.0001)     Wall clock time:   17.395172595977783
(PID.TID 0000.0001)          No. starts:          18
(PID.TID 0000.0001)           No. stops:          18
(PID.TID 0000.0001)   Seconds in section "DO_STATEVARS_DIAGS  [FORWARD_STEP]":
(PID.TID 0000.0001)           User time:  0.11958180367946625
(PID.TID 0000.0001)         System time:   9.6999108791351318E-005
(PID.TID 0000.0001)     Wall clock time:  0.11972379684448242
(PID.TID 0000.0001)          No. starts:          54
(PID.TID 0000.0001)           No. stops:          54
(PID.TID 0000.0001)   Seconds in section "LOAD_FIELDS_DRIVER  [FORWARD_STEP]":
(PID.TID 0000.0001)           User time:   5.1656365394592285E-004
(PID.TID 0000.0001)         System time:   6.0014426708221436E-006
(PID.TID 0000.0001)     Wall clock time:   5.2213668823242188E-004
(PID.TID 0000.0001)          No. starts:          18
(PID.TID 0000.0001)           No. stops:          18
(PID.TID 0000.0001)   Seconds in section "EXTERNAL_FLDS_LOAD [LOAD_FLDS_DRIVER]":
(PID.TID 0000.0001)           User time:   1.7519295215606689E-004
(PID.TID 0000.0001)         System time:   4.0009617805480957E-006
(PID.TID 0000.0001)     Wall clock time:   1.8024444580078125E-004
(PID.TID 0000.0001)          No. starts:          18
(PID.TID 0000.0001)           No. stops:          18
(PID.TID 0000.0001)   Seconds in section "DO_ATMOSPHERIC_PHYS [FORWARD_STEP]":
(PID.TID 0000.0001)           User time:   1.8207728862762451E-004
(PID.TID 0000.0001)         System time:   9.9837779998779297E-007
(PID.TID 0000.0001)     Wall clock time:   1.8310546875000000E-004
(PID.TID 0000.0001)          No. starts:          18
(PID.TID 0000.0001)           No. stops:          18
(PID.TID 0000.0001)   Seconds in section "DO_OCEANIC_PHYS     [FORWARD_STEP]":
(PID.TID 0000.0001)           User time:  0.29570344090461731
(PID.TID 0000.0001)         System time:   9.0003013610839844E-006
(PID.TID 0000.0001)     Wall clock time:  0.29580497741699219
(PID.TID 0000.0001)          No. starts:          18
(PID.TID 0000.0001)           No. stops:          18
(PID.TID 0000.0001)   Seconds in section "DYNAMICS            [FORWARD_STEP]":
(PID.TID 0000.0001)           User time:   4.4228476881980896
(PID.TID 0000.0001)         System time:   1.9999966025352478E-004
(PID.TID 0000.0001)     Wall clock time:   4.4232912063598633
(PID.TID 0000.0001)          No. starts:          18
(PID.TID 0000.0001)           No. stops:          18
(PID.TID 0000.0001)   Seconds in section "CALC_GW          [DYNAMICS]":
(PID.TID 0000.0001)           User time:   1.1006983518600464
(PID.TID 0000.0001)         System time:   0.0000000000000000
(PID.TID 0000.0001)     Wall clock time:   1.1007993221282959
(PID.TID 0000.0001)          No. starts:          72
(PID.TID 0000.0001)           No. stops:          72
(PID.TID 0000.0001)   Seconds in section "SOLVE_FOR_PRESSURE  [FORWARD_STEP]":
(PID.TID 0000.0001)           User time:   9.3190659582614899
(PID.TID 0000.0001)         System time:   0.0000000000000000
(PID.TID 0000.0001)     Wall clock time:   9.3200080394744873
(PID.TID 0000.0001)          No. starts:          18
(PID.TID 0000.0001)           No. stops:          18
(PID.TID 0000.0001)   Seconds in section "CG3D   [SOLVE_FOR_PRESSURE]":
(PID.TID 0000.0001)           User time:   9.0165072679519653
(PID.TID 0000.0001)         System time:   0.0000000000000000
(PID.TID 0000.0001)     Wall clock time:   9.0174729824066162
(PID.TID 0000.0001)          No. starts:          18
(PID.TID 0000.0001)           No. stops:          18
(PID.TID 0000.0001)   Seconds in section "MOM_CORRECTION_STEP [FORWARD_STEP]":
(PID.TID 0000.0001)           User time:  0.19111007452011108
(PID.TID 0000.0001)         System time:   0.0000000000000000
(PID.TID 0000.0001)     Wall clock time:  0.19115781784057617
(PID.TID 0000.0001)          No. starts:          18
(PID.TID 0000.0001)           No. stops:          18
(PID.TID 0000.0001)   Seconds in section "INTEGR_CONTINUITY   [FORWARD_STEP]":
(PID.TID 0000.0001)           User time:   8.6873233318328857E-002
(PID.TID 0000.0001)         System time:   0.0000000000000000
(PID.TID 0000.0001)     Wall clock time:   8.6907386779785156E-002
(PID.TID 0000.0001)          No. starts:          18
(PID.TID 0000.0001)           No. stops:          18
(PID.TID 0000.0001)   Seconds in section "BLOCKING_EXCHANGES  [FORWARD_STEP]":
(PID.TID 0000.0001)           User time:  0.32090258598327637
(PID.TID 0000.0001)         System time:   0.0000000000000000
(PID.TID 0000.0001)     Wall clock time:  0.32096076011657715
(PID.TID 0000.0001)          No. starts:          36
(PID.TID 0000.0001)           No. stops:          36
(PID.TID 0000.0001)   Seconds in section "THERMODYNAMICS      [FORWARD_STEP]":
(PID.TID 0000.0001)           User time:   2.0902331471443176
(PID.TID 0000.0001)         System time:   0.0000000000000000
(PID.TID 0000.0001)     Wall clock time:   2.0907635688781738
(PID.TID 0000.0001)          No. starts:          18
(PID.TID 0000.0001)           No. stops:          18
(PID.TID 0000.0001)   Seconds in section "TRC_CORRECTION_STEP [FORWARD_STEP]":
(PID.TID 0000.0001)           User time:   1.9156932830810547E-004
(PID.TID 0000.0001)         System time:   0.0000000000000000
(PID.TID 0000.0001)     Wall clock time:   1.9073486328125000E-004
(PID.TID 0000.0001)          No. starts:          18
(PID.TID 0000.0001)           No. stops:          18
(PID.TID 0000.0001)   Seconds in section "MONITOR             [FORWARD_STEP]":
(PID.TID 0000.0001)           User time:  0.49799311161041260
(PID.TID 0000.0001)         System time:   0.0000000000000000
(PID.TID 0000.0001)     Wall clock time:  0.49809575080871582
(PID.TID 0000.0001)          No. starts:          18
(PID.TID 0000.0001)           No. stops:          18
(PID.TID 0000.0001)   Seconds in section "DO_THE_MODEL_IO     [FORWARD_STEP]":
(PID.TID 0000.0001)           User time:   3.1284928321838379E-002
(PID.TID 0000.0001)         System time:   3.8309991359710693E-003
(PID.TID 0000.0001)     Wall clock time:   3.5142898559570312E-002
(PID.TID 0000.0001)          No. starts:          18
(PID.TID 0000.0001)           No. stops:          18
(PID.TID 0000.0001)   Seconds in section "DO_WRITE_PICKUP     [FORWARD_STEP]":
(PID.TID 0000.0001)           User time:   1.4358758926391602E-003
(PID.TID 0000.0001)         System time:   8.0020017921924591E-003
(PID.TID 0000.0001)     Wall clock time:   9.4428062438964844E-003
(PID.TID 0000.0001)          No. starts:          18
(PID.TID 0000.0001)           No. stops:          18
(PID.TID 0000.0001) // ======================================================
(PID.TID 0000.0001) // Tile <-> Tile communication statistics
(PID.TID 0000.0001) // ======================================================
(PID.TID 0000.0001) // o Tile number: 000001
(PID.TID 0000.0001) //         No. X exchanges =              0
(PID.TID 0000.0001) //            Max. X spins =              0
(PID.TID 0000.0001) //            Min. X spins =     1000000000
(PID.TID 0000.0001) //          Total. X spins =              0
(PID.TID 0000.0001) //            Avg. X spins =       0.00E+00
(PID.TID 0000.0001) //         No. Y exchanges =              0
(PID.TID 0000.0001) //            Max. Y spins =              0
(PID.TID 0000.0001) //            Min. Y spins =     1000000000
(PID.TID 0000.0001) //          Total. Y spins =              0
(PID.TID 0000.0001) //            Avg. Y spins =       0.00E+00
(PID.TID 0000.0001) // o Tile number: 000002
(PID.TID 0000.0001) //         No. X exchanges =              0
(PID.TID 0000.0001) //            Max. X spins =              0
(PID.TID 0000.0001) //            Min. X spins =     1000000000
(PID.TID 0000.0001) //          Total. X spins =              0
(PID.TID 0000.0001) //            Avg. X spins =       0.00E+00
(PID.TID 0000.0001) //         No. Y exchanges =              0
(PID.TID 0000.0001) //            Max. Y spins =              0
(PID.TID 0000.0001) //            Min. Y spins =     1000000000
(PID.TID 0000.0001) //          Total. Y spins =              0
(PID.TID 0000.0001) //            Avg. Y spins =       0.00E+00
(PID.TID 0000.0001) // o Tile number: 000003
(PID.TID 0000.0001) //         No. X exchanges =              0
(PID.TID 0000.0001) //            Max. X spins =              0
(PID.TID 0000.0001) //            Min. X spins =     1000000000
(PID.TID 0000.0001) //          Total. X spins =              0
(PID.TID 0000.0001) //            Avg. X spins =       0.00E+00
(PID.TID 0000.0001) //         No. Y exchanges =              0
(PID.TID 0000.0001) //            Max. Y spins =              0
(PID.TID 0000.0001) //            Min. Y spins =     1000000000
(PID.TID 0000.0001) //          Total. Y spins =              0
(PID.TID 0000.0001) //            Avg. Y spins =       0.00E+00
(PID.TID 0000.0001) // o Tile number: 000004
(PID.TID 0000.0001) //         No. X exchanges =              0
(PID.TID 0000.0001) //            Max. X spins =              0
(PID.TID 0000.0001) //            Min. X spins =     1000000000
(PID.TID 0000.0001) //          Total. X spins =              0
(PID.TID 0000.0001) //            Avg. X spins =       0.00E+00
(PID.TID 0000.0001) //         No. Y exchanges =              0
(PID.TID 0000.0001) //            Max. Y spins =              0
(PID.TID 0000.0001) //            Min. Y spins =     1000000000
(PID.TID 0000.0001) //          Total. Y spins =              0
(PID.TID 0000.0001) //            Avg. Y spins =       0.00E+00
(PID.TID 0000.0001) // o Thread number: 000001
(PID.TID 0000.0001) //            No. barriers =          43902
(PID.TID 0000.0001) //      Max. barrier spins =              1
(PID.TID 0000.0001) //      Min. barrier spins =              1
(PID.TID 0000.0001) //     Total barrier spins =          43902
(PID.TID 0000.0001) //      Avg. barrier spins =       1.00E+00
PROGRAM MAIN: Execution ended Normally
