(PID.TID 0000.0001) 
(PID.TID 0000.0001) // ======================================================
(PID.TID 0000.0001) //                      MITgcm UV
(PID.TID 0000.0001) //                      =========
(PID.TID 0000.0001) // ======================================================
(PID.TID 0000.0001) // execution environment starting up...
(PID.TID 0000.0001) 
(PID.TID 0000.0001) // MITgcmUV version:  checkpoint65m
(PID.TID 0000.0001) // Build user:        jmc
(PID.TID 0000.0001) // Build host:        baudelaire
(PID.TID 0000.0001) // Build date:        Sat Jul 18 18:09:14 EDT 2015
(PID.TID 0000.0001) 
(PID.TID 0000.0001) // =======================================================
(PID.TID 0000.0001) // Execution Environment parameter file "eedata"
(PID.TID 0000.0001) // =======================================================
(PID.TID 0000.0001) ># Example "eedata" file
(PID.TID 0000.0001) ># Lines beginning "#" are comments
(PID.TID 0000.0001) ># nTx - No. threads per process in X
(PID.TID 0000.0001) ># nTy - No. threads per process in Y
(PID.TID 0000.0001) > &EEPARMS
(PID.TID 0000.0001) > nTx=1,
(PID.TID 0000.0001) > nTy=1,
(PID.TID 0000.0001) > /
(PID.TID 0000.0001) ># Note: Some systems use & as the
(PID.TID 0000.0001) ># namelist terminator. Other systems
(PID.TID 0000.0001) ># use a / character (as shown here).
(PID.TID 0000.0001) 
(PID.TID 0000.0001) // =======================================================
(PID.TID 0000.0001) // Computational Grid Specification ( see files "SIZE.h" )
(PID.TID 0000.0001) //                                  ( and "eedata"       )
(PID.TID 0000.0001) // =======================================================
(PID.TID 0000.0001)      nPx =    1 ; /* No. processes in X */
(PID.TID 0000.0001)      nPy =    1 ; /* No. processes in Y */
(PID.TID 0000.0001)      nSx =    2 ; /* No. tiles in X per process */
(PID.TID 0000.0001)      nSy =    2 ; /* No. tiles in Y per process */
(PID.TID 0000.0001)      sNx =   64 ; /* Tile size in X */
(PID.TID 0000.0001)      sNy =   32 ; /* Tile size in Y */
(PID.TID 0000.0001)      OLx =    4 ; /* Tile overlap distance in X */
(PID.TID 0000.0001)      OLy =    4 ; /* Tile overlap distance in Y */
(PID.TID 0000.0001)      nTx =    1 ; /* No. threads in X per process */
(PID.TID 0000.0001)      nTy =    1 ; /* No. threads in Y per process */
(PID.TID 0000.0001)       Nr =   15 ; /* No. levels in the vertical   */
(PID.TID 0000.0001)       Nx =  128 ; /* Total domain size in X ( = nPx*nSx*sNx ) */
(PID.TID 0000.0001)       Ny =   64 ; /* Total domain size in Y ( = nPy*nSy*sNy ) */
(PID.TID 0000.0001)   nTiles =    4 ; /* Total no. tiles per process ( = nSx*nSy ) */
(PID.TID 0000.0001)   nProcs =    1 ; /* Total no. processes ( = nPx*nPy ) */
(PID.TID 0000.0001) nThreads =    1 ; /* Total no. threads per process ( = nTx*nTy ) */
(PID.TID 0000.0001) usingMPI =    F ; /* Flag used to control whether MPI is in use */
(PID.TID 0000.0001)                   /*  note: To execute a program with MPI calls */
(PID.TID 0000.0001)                   /*  it must be launched appropriately e.g     */
(PID.TID 0000.0001)                   /*  "mpirun -np 64 ......"                    */
(PID.TID 0000.0001) useCoupler=    F ;/* Flag used to control communications with   */
(PID.TID 0000.0001)                   /*  other model components, through a coupler */
(PID.TID 0000.0001) debugMode =    F ; /* print debug msg. (sequence of S/R calls)  */
(PID.TID 0000.0001) printMapIncludesZeros=    F ; /* print zeros in Std.Output maps */
(PID.TID 0000.0001) maxLengthPrt1D=   65 /* maxLength of 1D array printed to StdOut */
(PID.TID 0000.0001) 
(PID.TID 0000.0001) // ======================================================
(PID.TID 0000.0001) // Mapping of tiles to threads
(PID.TID 0000.0001) // ======================================================
(PID.TID 0000.0001) // -o- Thread   1, tiles (   1:   2,   1:   2)
(PID.TID 0000.0001) 
(PID.TID 0000.0001) // ======================================================
(PID.TID 0000.0001) // Tile <-> Tile connectvity table
(PID.TID 0000.0001) // ======================================================
(PID.TID 0000.0001) // Tile number: 000001 (process no. = 000000)
(PID.TID 0000.0001) //        WEST: Tile = 000002, Process = 000000, Comm = put
(PID.TID 0000.0001) //                bi = 000002, bj = 000001
(PID.TID 0000.0001) //        EAST: Tile = 000002, Process = 000000, Comm = put
(PID.TID 0000.0001) //                bi = 000002, bj = 000001
(PID.TID 0000.0001) //       SOUTH: Tile = 000003, Process = 000000, Comm = put
(PID.TID 0000.0001) //                bi = 000001, bj = 000002
(PID.TID 0000.0001) //       NORTH: Tile = 000003, Process = 000000, Comm = put
(PID.TID 0000.0001) //                bi = 000001, bj = 000002
(PID.TID 0000.0001) // Tile number: 000002 (process no. = 000000)
(PID.TID 0000.0001) //        WEST: Tile = 000001, Process = 000000, Comm = put
(PID.TID 0000.0001) //                bi = 000001, bj = 000001
(PID.TID 0000.0001) //        EAST: Tile = 000001, Process = 000000, Comm = put
(PID.TID 0000.0001) //                bi = 000001, bj = 000001
(PID.TID 0000.0001) //       SOUTH: Tile = 000004, Process = 000000, Comm = put
(PID.TID 0000.0001) //                bi = 000002, bj = 000002
(PID.TID 0000.0001) //       NORTH: Tile = 000004, Process = 000000, Comm = put
(PID.TID 0000.0001) //                bi = 000002, bj = 000002
(PID.TID 0000.0001) // Tile number: 000003 (process no. = 000000)
(PID.TID 0000.0001) //        WEST: Tile = 000004, Process = 000000, Comm = put
(PID.TID 0000.0001) //                bi = 000002, bj = 000002
(PID.TID 0000.0001) //        EAST: Tile = 000004, Process = 000000, Comm = put
(PID.TID 0000.0001) //                bi = 000002, bj = 000002
(PID.TID 0000.0001) //       SOUTH: Tile = 000001, Process = 000000, Comm = put
(PID.TID 0000.0001) //                bi = 000001, bj = 000001
(PID.TID 0000.0001) //       NORTH: Tile = 000001, Process = 000000, Comm = put
(PID.TID 0000.0001) //                bi = 000001, bj = 000001
(PID.TID 0000.0001) // Tile number: 000004 (process no. = 000000)
(PID.TID 0000.0001) //        WEST: Tile = 000003, Process = 000000, Comm = put
(PID.TID 0000.0001) //                bi = 000001, bj = 000002
(PID.TID 0000.0001) //        EAST: Tile = 000003, Process = 000000, Comm = put
(PID.TID 0000.0001) //                bi = 000001, bj = 000002
(PID.TID 0000.0001) //       SOUTH: Tile = 000002, Process = 000000, Comm = put
(PID.TID 0000.0001) //                bi = 000002, bj = 000001
(PID.TID 0000.0001) //       NORTH: Tile = 000002, Process = 000000, Comm = put
(PID.TID 0000.0001) //                bi = 000002, bj = 000001
(PID.TID 0000.0001) 
(PID.TID 0000.0001)  INI_PARMS: opening model parameter file "data"
(PID.TID 0000.0001)  OPEN_COPY_DATA_FILE: opening file data
(PID.TID 0000.0001) // =======================================================
(PID.TID 0000.0001) // Parameter file "data"
(PID.TID 0000.0001) // =======================================================
(PID.TID 0000.0001) ># ====================
(PID.TID 0000.0001) ># | Model parameters |
(PID.TID 0000.0001) ># ====================
(PID.TID 0000.0001) >#
(PID.TID 0000.0001) ># Continuous equation parameters
(PID.TID 0000.0001) > &PARM01
(PID.TID 0000.0001) > tRef=15*20.,
(PID.TID 0000.0001) > sRef=15*35.,
(PID.TID 0000.0001) > viscA4=0.,
(PID.TID 0000.0001) > viscAh=5.E5,
(PID.TID 0000.0001) > diffKhT=0.E3,
(PID.TID 0000.0001) > diffKhS=0.E3,
(PID.TID 0000.0001) > viscAr=1.E-3,
(PID.TID 0000.0001) > diffKrT=5.E-5,
(PID.TID 0000.0001) > diffKrS=5.E-5,
(PID.TID 0000.0001) > gravity=9.81,
(PID.TID 0000.0001) > rhonil=1035.,
(PID.TID 0000.0001) > rigidLid=.FALSE.,
(PID.TID 0000.0001) > implicitFreeSurface=.TRUE.,
(PID.TID 0000.0001) > eosType='POLY3',
(PID.TID 0000.0001) > implicitDiffusion=.TRUE.,
(PID.TID 0000.0001) > implicitViscosity=.TRUE.,
(PID.TID 0000.0001) > ivdc_kappa=100.,
(PID.TID 0000.0001) > multiDimAdvection   = .FALSE.
(PID.TID 0000.0001) >#allowFreezing=.TRUE.,
(PID.TID 0000.0001) > useCDscheme=.FALSE.,
(PID.TID 0000.0001) > /
(PID.TID 0000.0001) >
(PID.TID 0000.0001) ># Elliptic solver parameters
(PID.TID 0000.0001) > &PARM02
(PID.TID 0000.0001) > cg2dMaxIters=1000,
(PID.TID 0000.0001) > cg2dTargetResidual=1.E-13,
(PID.TID 0000.0001) > /
(PID.TID 0000.0001) >
(PID.TID 0000.0001) ># Time stepping parameters
(PID.TID 0000.0001) > &PARM03
(PID.TID 0000.0001) > nIter0  = 4269600,
(PID.TID 0000.0001) > nTimeSteps = 4,
(PID.TID 0000.0001) ># 100 years starting from a spinup of 5900 years:
(PID.TID 0000.0001) >#startTime = 1.835136E+11,
(PID.TID 0000.0001) >#endTime   = 1.866240E+11,
(PID.TID 0000.0001) > deltaTmom = 900.0,
(PID.TID 0000.0001) >#tauCD =     321428.,
(PID.TID 0000.0001) > deltaTtracer= 43200.0,
(PID.TID 0000.0001) > deltaTClock = 43200.0,
(PID.TID 0000.0001) > abEps = 0.1,
(PID.TID 0000.0001) >#cAdjFreq = -1,
(PID.TID 0000.0001) > pChkptFreq=3110400000.,
(PID.TID 0000.0001) >#chkptFreq= 3110400000.,
(PID.TID 0000.0001) > dumpFreq=  31104000.,
(PID.TID 0000.0001) > taveFreq=  31104000.,
(PID.TID 0000.0001) >#monitorFreq= 4853865600.,
(PID.TID 0000.0001) > monitorFreq= 2592000.,
(PID.TID 0000.0001) >#tauThetaClimRelax = 5184000.0,
(PID.TID 0000.0001) >#tauSaltClimRelax =  7776000.0,
(PID.TID 0000.0001) > periodicExternalForcing=.TRUE.,
(PID.TID 0000.0001) > externForcingPeriod=2592000.,
(PID.TID 0000.0001) > externForcingCycle=31104000.,
(PID.TID 0000.0001) > /
(PID.TID 0000.0001) >
(PID.TID 0000.0001) ># Gridding parameters
(PID.TID 0000.0001) > &PARM04
(PID.TID 0000.0001) > usingSphericalPolarGrid=.TRUE.,
(PID.TID 0000.0001) > delR=  50.,  70., 100., 140., 190.,
(PID.TID 0000.0001) >       240., 290., 340., 390., 440.,
(PID.TID 0000.0001) >       490., 540., 590., 640., 690.,
(PID.TID 0000.0001) > ygOrigin=-90.,
(PID.TID 0000.0001) > dxSpacing=2.8125,
(PID.TID 0000.0001) > dySpacing=2.8125,
(PID.TID 0000.0001) > /
(PID.TID 0000.0001) >
(PID.TID 0000.0001) ># Input datasets
(PID.TID 0000.0001) > &PARM05
(PID.TID 0000.0001) > bathyFile=      'depth_g77.bin',
(PID.TID 0000.0001) >#hydrogThetaFile='lev_clim_temp.bin',
(PID.TID 0000.0001) >#hydrogSaltFile= 'lev_clim_salt.bin',
(PID.TID 0000.0001) >#zonalWindFile=  'tren_taux.bin',
(PID.TID 0000.0001) >#meridWindFile=  'tren_tauy.bin',
(PID.TID 0000.0001) >#thetaClimFile=  'lev_monthly_temp.bin',
(PID.TID 0000.0001) >#saltClimFile=   'lev_monthly_salt.bin',
(PID.TID 0000.0001) >#surfQFile=      'shi_qnet.bin',
(PID.TID 0000.0001) >#EmPmRFile=      'shi_empmr_year.bin',
(PID.TID 0000.0001) > the_run_name=   'Testing CFC and OFFLINE code',
(PID.TID 0000.0001) > /
(PID.TID 0000.0001) 
(PID.TID 0000.0001)  INI_PARMS ; starts to read PARM01
(PID.TID 0000.0001)  INI_PARMS ; read PARM01 : OK
(PID.TID 0000.0001)  INI_PARMS ; starts to read PARM02
(PID.TID 0000.0001)  INI_PARMS ; read PARM02 : OK
(PID.TID 0000.0001)  INI_PARMS ; starts to read PARM03
(PID.TID 0000.0001)  INI_PARMS ; read PARM03 : OK
(PID.TID 0000.0001)  INI_PARMS ; starts to read PARM04
(PID.TID 0000.0001)  INI_PARMS ; read PARM04 : OK
(PID.TID 0000.0001)  INI_PARMS ; starts to read PARM05
(PID.TID 0000.0001)  INI_PARMS ; read PARM05 : OK
(PID.TID 0000.0001)  INI_PARMS: finished reading file "data"
(PID.TID 0000.0001)  PACKAGES_BOOT: opening data.pkg
(PID.TID 0000.0001)  OPEN_COPY_DATA_FILE: opening file data.pkg
(PID.TID 0000.0001) // =======================================================
(PID.TID 0000.0001) // Parameter file "data.pkg"
(PID.TID 0000.0001) // =======================================================
(PID.TID 0000.0001) ># Packages
(PID.TID 0000.0001) > &PACKAGES
(PID.TID 0000.0001) > useGMRedi=.TRUE.,
(PID.TID 0000.0001) > usePTRACERS=.TRUE.,
(PID.TID 0000.0001) > useGCHEM=.TRUE.,
(PID.TID 0000.0001) > useOffLine=.TRUE.,
(PID.TID 0000.0001) >#useMNC=.TRUE.,
(PID.TID 0000.0001) > /
(PID.TID 0000.0001) >
(PID.TID 0000.0001) 
(PID.TID 0000.0001)  PACKAGES_BOOT: finished reading data.pkg
(PID.TID 0000.0001)  PACKAGES_BOOT: On/Off package Summary
 --------  pkgs with a standard "usePKG" On/Off switch in "data.pkg":  --------
 pkg/gmredi               compiled   and   used ( useGMRedi                = T )
 pkg/ptracers             compiled   and   used ( usePTRACERS              = T )
 pkg/gchem                compiled   and   used ( useGCHEM                 = T )
 pkg/offline              compiled   and   used ( useOffLine               = T )
 -------- pkgs without standard "usePKG" On/Off switch in "data.pkg":  --------
 pkg/generic_advdiff      compiled   and   used ( useGAD                   = T )
 pkg/monitor              compiled   and   used ( monitorFreq > 0.         = T )
 pkg/timeave              compiled   and   used ( taveFreq > 0.            = T )
 pkg/debug                compiled but not used ( debugMode                = F )
 pkg/rw                   compiled   and   used
 pkg/mdsio                compiled   and   used
(PID.TID 0000.0001)  PACKAGES_BOOT: End of package Summary
(PID.TID 0000.0001) 
(PID.TID 0000.0001)  GM_READPARMS: opening data.gmredi
(PID.TID 0000.0001)  OPEN_COPY_DATA_FILE: opening file data.gmredi
(PID.TID 0000.0001) // =======================================================
(PID.TID 0000.0001) // Parameter file "data.gmredi"
(PID.TID 0000.0001) // =======================================================
(PID.TID 0000.0001) ># from MOM
(PID.TID 0000.0001) ># GM_background_K: 	isopycnal diffusion coefficien
(PID.TID 0000.0001) ># GM_maxSlope:		max slope of isopycnals
(PID.TID 0000.0001) ># GM_Scrit:		transition for scaling diffusion coefficient
(PID.TID 0000.0001) ># GM_Sd:		half width scaling for diffusion coefficient
(PID.TID 0000.0001) ># real background diff:	horizontal diffusion
(PID.TID 0000.0001) >
(PID.TID 0000.0001) ># ifdef GM_VISBECK_VARIABLE_K, include following in GM_PARM01
(PID.TID 0000.0001) ># GM_Visbeck_alpha   = 0.,
(PID.TID 0000.0001) ># GM_Visbeck_length  = 2.e+5,
(PID.TID 0000.0001) ># GM_Visbeck_depth   = 1.e+3,
(PID.TID 0000.0001) ># GM_Visbeck_maxval_K= 2.5e+3,
(PID.TID 0000.0001) >
(PID.TID 0000.0001) > &GM_PARM01
(PID.TID 0000.0001) >  GM_background_K    = 1.e+3,
(PID.TID 0000.0001) >  GM_taper_scheme    = 'gkw91',
(PID.TID 0000.0001) >  GM_maxSlope        = 1.e-2,
(PID.TID 0000.0001) >  GM_Kmin_horiz      = 100.,
(PID.TID 0000.0001) >  GM_Scrit           = 4.e-3,
(PID.TID 0000.0001) >  GM_Sd              = 1.e-3,
(PID.TID 0000.0001) > /
(PID.TID 0000.0001) >
(PID.TID 0000.0001) >
(PID.TID 0000.0001) 
(PID.TID 0000.0001)  GM_READPARMS: finished reading data.gmredi
(PID.TID 0000.0001)  PTRACERS_READPARMS: opening data.ptracers
(PID.TID 0000.0001)  OPEN_COPY_DATA_FILE: opening file data.ptracers
(PID.TID 0000.0001) // =======================================================
(PID.TID 0000.0001) // Parameter file "data.ptracers"
(PID.TID 0000.0001) // =======================================================
(PID.TID 0000.0001) > &PTRACERS_PARM01
(PID.TID 0000.0001) > PTRACERS_numInUse=2,
(PID.TID 0000.0001) > PTRACERS_Iter0= 4248000,
(PID.TID 0000.0001) ># for verification:
(PID.TID 0000.0001) > PTRACERS_monitorFreq=43200.,
(PID.TID 0000.0001) >#- for each tracers:
(PID.TID 0000.0001) ># tracer 1 - dic
(PID.TID 0000.0001) > PTRACERS_names(1)='cfc11',
(PID.TID 0000.0001) > PTRACERS_long_names(1)='CFC11',
(PID.TID 0000.0001) > PTRACERS_units(1)='mol/m^3',
(PID.TID 0000.0001) > PTRACERS_advScheme(1)=77,
(PID.TID 0000.0001) > PTRACERS_diffKh(1)=0.E3,
(PID.TID 0000.0001) > PTRACERS_diffKr(1)=5.E-5,
(PID.TID 0000.0001) > PTRACERS_useGMRedi(1)=.TRUE. ,
(PID.TID 0000.0001) > PTRACERS_useKPP(1)=.FALSE. ,
(PID.TID 0000.0001) > PTRACERS_initialFile(1)=' ',
(PID.TID 0000.0001) ># tracer 2 - alk
(PID.TID 0000.0001) > PTRACERS_names(2)='cfc12',
(PID.TID 0000.0001) > PTRACERS_units(2)='mol/m^3',
(PID.TID 0000.0001) > PTRACERS_advScheme(2)=77,
(PID.TID 0000.0001) > PTRACERS_diffKh(2)=0.E3,
(PID.TID 0000.0001) > PTRACERS_diffKr(2)=5.E-5,
(PID.TID 0000.0001) > PTRACERS_useGMRedi(2)=.TRUE. ,
(PID.TID 0000.0001) > PTRACERS_useKPP(2)=.FALSE. ,
(PID.TID 0000.0001) > PTRACERS_initialFile(2)=' ',
(PID.TID 0000.0001) > /
(PID.TID 0000.0001) 
(PID.TID 0000.0001)  PTRACERS_READPARMS: finished reading data.ptracers
(PID.TID 0000.0001)  GCHEM_READPARMS: opening data.gchem
(PID.TID 0000.0001)  OPEN_COPY_DATA_FILE: opening file data.gchem
(PID.TID 0000.0001) // =======================================================
(PID.TID 0000.0001) // Parameter file "data.gchem"
(PID.TID 0000.0001) // =======================================================
(PID.TID 0000.0001) > &GCHEM_PARM01
(PID.TID 0000.0001) >  useCFC=.TRUE.,
(PID.TID 0000.0001) >  nsubtime=1,
(PID.TID 0000.0001) > /
(PID.TID 0000.0001) 
(PID.TID 0000.0001)  GCHEM_READPARMS: finished reading data.gchem
(PID.TID 0000.0001)  CFC_READPARMS: opening data.cfc
(PID.TID 0000.0001)  OPEN_COPY_DATA_FILE: opening file data.cfc
(PID.TID 0000.0001) // =======================================================
(PID.TID 0000.0001) // Parameter file "data.cfc"
(PID.TID 0000.0001) // =======================================================
(PID.TID 0000.0001) >#--------------------+-----------------
(PID.TID 0000.0001) ># CFC pkg parameter setting
(PID.TID 0000.0001) ># lines starting with "#" are comments
(PID.TID 0000.0001) >#--------------------+-----------------
(PID.TID 0000.0001) >#  atmCFC_inpFile    : file name of Atmospheric CFC time series (ASCII file)
(PID.TID 0000.0001) >#                        default = 'cfc1112.atm'
(PID.TID 0000.0001) >#  atmCFC_recSepTime : time spacing between 2 records of atmos CFC [s]
(PID.TID 0000.0001) >#                        default = 31104000. (360 days)
(PID.TID 0000.0001) >#  atmCFC_timeOffset : time offset for atmos CFC (cfcTime = myTime + offSet)
(PID.TID 0000.0001) >#                        default = recSepTime - deltaT * PTRACERS_Iter0
(PID.TID 0000.0001) >#  atmCFC_yNorthBnd  : Northern Lat boundary for interpolation [y-unit]
(PID.TID 0000.0001) >#                        default =  +10.
(PID.TID 0000.0001) >#  atmCFC_ySouthBnd  : Southern Lat boundary for interpolation [y-unit]
(PID.TID 0000.0001) >#                        default =  -10.
(PID.TID 0000.0001) >#  CFC_windFile      : file name of wind speeds          ; default =  ' '
(PID.TID 0000.0001) >#  CFC_atmospFile    : file name of atmospheric pressure ; default =  ' '
(PID.TID 0000.0001) >#  CFC_iceFile       : file name of seaice fraction      ; default =  ' '
(PID.TID 0000.0001) >#  CFC_forcingPeriod : record spacing time for CFC forcing (seconds)
(PID.TID 0000.0001) >#                        default = externForcingPeriod
(PID.TID 0000.0001) >#  CFC_forcingCycle  : periodic-cycle freq for CFC forcing (seconds)
(PID.TID 0000.0001) >#                        default = externForcingCycle
(PID.TID 0000.0001) >#--------------------+-----------------
(PID.TID 0000.0001) > &CFC_FORCING
(PID.TID 0000.0001) >#- default atmCFC_timeOffset is set according to PTRACERS_Iter0
(PID.TID 0000.0001) >#   and corresponds to -5899*360*86400 as set just below:
(PID.TID 0000.0001) ># atmCFC_timeOffset = -183482496000.,
(PID.TID 0000.0001) >  CFC_iceFile='fice.bin',
(PID.TID 0000.0001) >  CFC_windFile='tren_speed.bin',
(PID.TID 0000.0001) > /
(PID.TID 0000.0001) 
(PID.TID 0000.0001)  CFC_READPARMS: finished reading data.cfc
(PID.TID 0000.0001)  OFFLINE_READPARMS: opening data.off
(PID.TID 0000.0001)  OPEN_COPY_DATA_FILE: opening file data.off
(PID.TID 0000.0001) // =======================================================
(PID.TID 0000.0001) // Parameter file "data.off"
(PID.TID 0000.0001) // =======================================================
(PID.TID 0000.0001) > &OFFLINE_PARM01
(PID.TID 0000.0001) >  UvelFile= '../input/input_off/uVeltave',
(PID.TID 0000.0001) >  VvelFile= '../input/input_off/vVeltave',
(PID.TID 0000.0001) >  WvelFile= '../input/input_off/wVeltave',
(PID.TID 0000.0001) >  GMwxFile= '../input/input_off/GM_Kwx-T',
(PID.TID 0000.0001) >  GMwyFile= '../input/input_off/GM_Kwy-T',
(PID.TID 0000.0001) >  GMwzFile= '../input/input_off/GM_Kwz-T',
(PID.TID 0000.0001) >  ConvFile= '../input/input_off/Convtave',
(PID.TID 0000.0001) >  SaltFile= '../input/input_off/Stave',
(PID.TID 0000.0001) >  ThetFile= '../input/input_off/Ttave',
(PID.TID 0000.0001) ># SFluxFile='../input/input_off/sFluxtave',
(PID.TID 0000.0001) ># HFluxFile=' ',
(PID.TID 0000.0001) > /
(PID.TID 0000.0001) >
(PID.TID 0000.0001) > &OFFLINE_PARM02
(PID.TID 0000.0001) >  offlineIter0=4248000,
(PID.TID 0000.0001) >  deltaToffline=43200.,
(PID.TID 0000.0001) >  offlineForcingPeriod=2592000.,
(PID.TID 0000.0001) >  offlineForcingCycle=31104000.,
(PID.TID 0000.0001) > /
(PID.TID 0000.0001) >
(PID.TID 0000.0001) 
(PID.TID 0000.0001)  OFFLINE_READPARMS: finished reading data.off
(PID.TID 0000.0001)  OFFLINE_RESET_PARMS: => turn off Temp,Salt & Mom_Stepping flags
(PID.TID 0000.0001) SET_PARMS: done
(PID.TID 0000.0001) Enter INI_VERTICAL_GRID: setInterFDr=    T ; setCenterDr=    F
(PID.TID 0000.0001) %MON XC_max                       =   3.5859375000000E+02
(PID.TID 0000.0001) %MON XC_min                       =   1.4062500000000E+00
(PID.TID 0000.0001) %MON XC_mean                      =   1.8000000000000E+02
(PID.TID 0000.0001) %MON XC_sd                        =   1.0391987692599E+02
(PID.TID 0000.0001) %MON XG_max                       =   3.5718750000000E+02
(PID.TID 0000.0001) %MON XG_min                       =   0.0000000000000E+00
(PID.TID 0000.0001) %MON XG_mean                      =   1.7859375000000E+02
(PID.TID 0000.0001) %MON XG_sd                        =   1.0391987692599E+02
(PID.TID 0000.0001) %MON DXC_max                      =   3.1259246843155E+05
(PID.TID 0000.0001) %MON DXC_min                      =   7.6737143816223E+03
(PID.TID 0000.0001) %MON DXC_mean                     =   1.9908248704234E+05
(PID.TID 0000.0001) %MON DXC_sd                       =   9.6190602240067E+04
(PID.TID 0000.0001) %MON DXF_max                      =   3.1259246843155E+05
(PID.TID 0000.0001) %MON DXF_min                      =   7.6737143816223E+03
(PID.TID 0000.0001) %MON DXF_mean                     =   1.9908248704234E+05
(PID.TID 0000.0001) %MON DXF_sd                       =   9.6190602240067E+04
(PID.TID 0000.0001) %MON DXG_max                      =   3.1268664380261E+05
(PID.TID 0000.0001) %MON DXG_min                      =   0.0000000000000E+00
(PID.TID 0000.0001) %MON DXG_mean                     =   1.9902252711933E+05
(PID.TID 0000.0001) %MON DXG_sd                       =   9.6314600686012E+04
(PID.TID 0000.0001) %MON DXV_max                      =   3.1268664380261E+05
(PID.TID 0000.0001) %MON DXV_min                      =   0.0000000000000E+00
(PID.TID 0000.0001) %MON DXV_mean                     =   1.9902252711933E+05
(PID.TID 0000.0001) %MON DXV_sd                       =   9.6314600686012E+04
(PID.TID 0000.0001) %MON YC_max                       =   8.8593750000000E+01
(PID.TID 0000.0001) %MON YC_min                       =  -8.8593750000000E+01
(PID.TID 0000.0001) %MON YC_mean                      =   0.0000000000000E+00
(PID.TID 0000.0001) %MON YC_sd                        =   5.1955180880375E+01
(PID.TID 0000.0001) %MON YG_max                       =   8.7187500000000E+01
(PID.TID 0000.0001) %MON YG_min                       =  -9.0000000000000E+01
(PID.TID 0000.0001) %MON YG_mean                      =  -1.4062500000000E+00
(PID.TID 0000.0001) %MON YG_sd                        =   5.1955180880375E+01
(PID.TID 0000.0001) %MON DYC_max                      =   3.1268664380261E+05
(PID.TID 0000.0001) %MON DYC_min                      =   3.1268664380261E+05
(PID.TID 0000.0001) %MON DYC_mean                     =   3.1268664380260E+05
(PID.TID 0000.0001) %MON DYC_sd                       =   4.3655745685101E-09
(PID.TID 0000.0001) %MON DYF_max                      =   3.1268664380261E+05
(PID.TID 0000.0001) %MON DYF_min                      =   3.1268664380261E+05
(PID.TID 0000.0001) %MON DYF_mean                     =   3.1268664380260E+05
(PID.TID 0000.0001) %MON DYF_sd                       =   4.3655745685101E-09
(PID.TID 0000.0001) %MON DYG_max                      =   3.1268664380261E+05
(PID.TID 0000.0001) %MON DYG_min                      =   3.1268664380261E+05
(PID.TID 0000.0001) %MON DYG_mean                     =   3.1268664380260E+05
(PID.TID 0000.0001) %MON DYG_sd                       =   4.3655745685101E-09
(PID.TID 0000.0001) %MON DYU_max                      =   3.1268664380261E+05
(PID.TID 0000.0001) %MON DYU_min                      =   3.1268664380261E+05
(PID.TID 0000.0001) %MON DYU_mean                     =   3.1268664380260E+05
(PID.TID 0000.0001) %MON DYU_sd                       =   4.3655745685101E-09
(PID.TID 0000.0001) %MON RA_max                       =   9.7733676797555E+10
(PID.TID 0000.0001) %MON RA_min                       =   2.3992270990190E+09
(PID.TID 0000.0001) %MON RA_mean                      =   6.2244185031956E+10
(PID.TID 0000.0001) %MON RA_sd                        =   3.0074496923945E+10
(PID.TID 0000.0001) %MON RAW_max                      =   9.7733676797555E+10
(PID.TID 0000.0001) %MON RAW_min                      =   2.3992270990190E+09
(PID.TID 0000.0001) %MON RAW_mean                     =   6.2244185031956E+10
(PID.TID 0000.0001) %MON RAW_sd                       =   3.0074496923945E+10
(PID.TID 0000.0001) %MON RAS_max                      =   9.7763121221868E+10
(PID.TID 0000.0001) %MON RAS_min                      =   0.0000000000000E+00
(PID.TID 0000.0001) %MON RAS_mean                     =   6.2225438247155E+10
(PID.TID 0000.0001) %MON RAS_sd                       =   3.0113265689232E+10
(PID.TID 0000.0001) %MON RAZ_max                      =   9.7763121221868E+10
(PID.TID 0000.0001) %MON RAZ_min                      =   0.0000000000000E+00
(PID.TID 0000.0001) %MON RAZ_mean                     =   6.2225438247155E+10
(PID.TID 0000.0001) %MON RAZ_sd                       =   3.0113265689232E+10
(PID.TID 0000.0001) %MON AngleCS_max                  =   1.0000000000000E+00
(PID.TID 0000.0001) %MON AngleCS_min                  =   1.0000000000000E+00
(PID.TID 0000.0001) %MON AngleCS_mean                 =   1.0000000000000E+00
(PID.TID 0000.0001) %MON AngleCS_sd                   =   0.0000000000000E+00
(PID.TID 0000.0001) %MON AngleSN_max                  =   0.0000000000000E+00
(PID.TID 0000.0001) %MON AngleSN_min                  =   0.0000000000000E+00
(PID.TID 0000.0001) %MON AngleSN_mean                 =   0.0000000000000E+00
(PID.TID 0000.0001) %MON AngleSN_sd                   =   0.0000000000000E+00
(PID.TID 0000.0001)  MDS_READ_FIELD: opening global file: depth_g77.bin
(PID.TID 0000.0001) // =======================================================
(PID.TID 0000.0001) // Field Model R_low (ini_masks_etc)
(PID.TID 0000.0001) // CMIN =         -5.200000000000000E+03
(PID.TID 0000.0001) // CMAX =         -5.000000000000000E+01
(PID.TID 0000.0001) // CINT =          1.907407407407407E+02
(PID.TID 0000.0001) // SYMBOLS (CMIN->CMAX): -abcdefghijklmnopqrstuvwxyz+
(PID.TID 0000.0001) //                  0.0: .
(PID.TID 0000.0001) // RANGE I (Lo:Hi:Step):(    -3:   132:     1)
(PID.TID 0000.0001) // RANGE J (Lo:Hi:Step):(    68:    -3:    -1)
(PID.TID 0000.0001) // RANGE K (Lo:Hi:Step):(   1:   1:   1)
(PID.TID 0000.0001) // =======================================================
(PID.TID 0000.0001) K =   1
(PID.TID 0000.0001) //                I=6       I=16      I=26      I=36      I=46      I=56      I=66      I=68      I=78      I=88      I=98      I=108     I=118     I=128
(PID.TID 0000.0001) // |--J--|321012345|789012345|789012345|789012345|789012345|789012345|789012345|781234567|901234567|901234567|901234567|901234567|901234567|901234567|9012
(PID.TID 0000.0001) //     68 ................................................................................................................................................
(PID.TID 0000.0001) //     67 ................................................................................................................................................
(PID.TID 0000.0001) //     66 ................................................................................................................................................
(PID.TID 0000.0001) //     65 ................................................................................................................................................
(PID.TID 0000.0001) //     64 ................................................................................................................................................
(PID.TID 0000.0001) //     63 ................................................................................................................................................
(PID.TID 0000.0001) //     62 ................................................................................................................................................
(PID.TID 0000.0001) //     61 +zvoovxyyy...+zzzzz+++++...............................................................................................................++zvoovxy
(PID.TID 0000.0001) //     60 +yvmmorw.....+++++zzzzz+.........................................................................................+....................zz+yvmmorw
(PID.TID 0000.0001) //     59 ojjjmmooty++zzzzzzzzzz+.........................................................................................+xwwwyz..............+ztojjjmmoo
(PID.TID 0000.0001) //     58 troommmorxzz+++zzzzz++.............................................................................................wttyz............+yvttroommmo
(PID.TID 0000.0001) //     57 vrmmmmmrv............................................................................................................xxz............xwvvvrmmmmmr
(PID.TID 0000.0001) //     56 vrjjrvyz..............................................................................................................zy........yyzxx..zvrjjrvyz
(PID.TID 0000.0001) //     55 ywrrvy..............................................................++......++.......................................+yvv.....vrrtxyyzyyywrrvy..
(PID.TID 0000.0001) //     54 xzz++............................................................vtt++++.vtt++++......................................yommv..vmmrvtoortwxzz++...
(PID.TID 0000.0001) //     53 y...++.................................................++++...wvtjggmrz+tjggmrz+++....xojmt...........................+tmjjmmmmrtoootwyxy...++..
(PID.TID 0000.0001) //     52 ....++................................................+zyyy...rrojjrmjjtojjrmjjt+.yvrjjjjjjr............................wtjjjjmrommmtvtt....++..
(PID.TID 0000.0001) //     51 .......................................................zvvx..ggjjmotvoomjmotvoomjdddddgggjjjrz..........................+yrjjjjjmmjjmmry........
(PID.TID 0000.0001) //     50 y+.....................................................+vvxyd--ggdd-----gdd-------ddddddgggjmox..........................+yrogggjmmggggty+......
(PID.TID 0000.0001) //     49 gj+....................................................+vvmd----g-------g--------------ddddgjomx..........................+wrgggjmojggddgj+.....
(PID.TID 0000.0001) //     48 vxx.....................................................vd------g-------g--------------ddgggjmmv.....................+xrrxwgdggjjoomjggjvxx.....
(PID.TID 0000.0001) //     47 v......................................................m------d-gd------gd-------------ddddggjjt...................ywgd--dggdddgrrojgddgv.......
(PID.TID 0000.0001) //     46 w.....................................................xd-----gd-jdgd----jdgd-----------dd---dddm..................rgddg-----dggmttvogdjjw.......
(PID.TID 0000.0001) //     45 m.....................................................m-----gd--gjjjjj--gjjjjj-------------ddddgt................tgddddg-ggggjoooojddgomm.......
(PID.TID 0000.0001) //     44 .................................................+.wttg----gj----jgggg---jgggg---dd-------ddddggjw..............zj--ggdd--dgjomjjoj-djmm........
(PID.TID 0000.0001) //     43 ................................................+zxmjrg----------dddggdd-dddggdd--d----ddddggddggmx............+wg--dd----djmmgddjd-djow........
(PID.TID 0000.0001) //     42 ...............................................+zyomjjrmd-----------djjj----djjjjdgd----dddddddgggj............wwd-------ddjmgd---d-gmx.........
(PID.TID 0000.0001) //     41 .........................tt.....................mgjjggrgddjddd----d---gg--d---ggtjjggd----ddddggggjm++.......vwwwv-------dgmjd------go..........
(PID.TID 0000.0001) //     40 .........................roo.................yytdd--gdmogggjjgd--jomd-gj-jomd-gjgdgovd-------ddggggjmm.......xxx.xvj-----dgmgd--ddddgt..........
(PID.TID 0000.0001) //     39 ........................xjjjr.....vrr.......vovtd---ddgogjgddggggmjjjmmmgmjjjmmmg--gmd--------dgggjjmmt......oortw.tttg-ddgmgd--ddgjjr..........
(PID.TID 0000.0001) //     38 .......................rmjggjt...rmmo+.....xrov.m--dddgogddddgggddgddddjddgddddjg----------dd-ddgggjmjmmov.....ytmmggttdddjjjdd---dtjr..........
(PID.TID 0000.0001) //     37 ....................zvvtjggggt..+jjjrx+....vmmy.t--ddgmmg--ddjmmg-d-d--dg-d-d--ddd-------dddddddggggjjmmjjjo...toovttwxjdddjjgd----ddo..........
(PID.TID 0000.0001) //     36 ......................tjmgdddrw.+jjjrxz....vty...--gmommmgdddmgor------gr------ggmgg--d---dddddddgggjmmjjggjm+.ww......rjdddgjgd----gm..........
(PID.TID 0000.0001) //     35 ......................dgjmgggmrv+jgjoxz....ww....--mjjorrommjgdjmj---d--mj---d--dgmgdddd-dddddddggggggjjjjjjjtx.........zyggddgjjgggmdjx........
(PID.TID 0000.0001) //     34 rrrrrtz..............rdddjmjgmrmgggjjw........zyxojjggmgggjmjjdgdjd--d--djd--d---djodddddddddddddgggggjjjjjmtrmr..........ymgggjmjggjddgrrrrrtz.
(PID.TID 0000.0001) //     33 dddddgr.............tddggggmjjogdddjjj.........zxxojgjmgggjoojdddmg--dd-dmg--dd--ddmjdgdddddgddddgggggjjjmmtrmmy...........+jgggjmjjdddddddddgr.
(PID.TID 0000.0001) //     32 gdddggo............rgddgddgjjjjddddgddm.........xx..+ttttrrrojggggo--dd-ggo--dd----dgddddddddddddddgggjjjjjtror..............oogdddgggjjgdddggo.
(PID.TID 0000.0001) //     31 jgddgdgy..........vgddgwrjgjmrg--ddgdddr........xxz.....y.xvtomjjdd---ddjdd---dd-jdddddddddddddddddggjjjjgggjjj................tg----dgmjgddgdgy
(PID.TID 0000.0001) //     30 jgdgd-dm..........vggjjovmgjmwd---dgddddmy...+xxxxy++....oo.vtjjgddg--ddgddg--dddjgddddddgjdddddddggjjjgggggggg................zd---dgjmjgdgd-dm
(PID.TID 0000.0001) //     29 jggd--dgy.........wjmmmjmyomjm---ddgdddddgjmooxxxx++++.+..vtvxrrgddjjjjggddjjjjggjmg-dgddgrgddgggggjmmjggggggddr...............yd---dgjmjggd--dg
(PID.TID 0000.0001) //     36 ......................tjmgdddrw.+jjjrxz....vty...--gmommmgdddmgor------gr------ggmgg--d---dddddddgggjmmjjggjm+.ww......rjdddgjgd----gm..........
(PID.TID 0000.0001) //     35 ......................dgjmgggmrv+jgjoxz....ww....--mjjorrommjgdjmj---d--mj---d--dgmgdddd-dddddddggggggjjjjjjjtx.........zyggddgjjgggmdjx........
(PID.TID 0000.0001) //     34 rrrrrtz..............rdddjmjgmrmgggjjw........zyxojjggmgggjmjjdgdjd--d--djd--d---djodddddddddddddgggggjjjjjmtrmr..........ymgggjmjggjddgrrrrrtz.
(PID.TID 0000.0001) //     33 dddddgr.............tddggggmjjogdddjjj.........zxxojgjmgggjoojdddmg--dd-dmg--dd--ddmjdgdddddgddddgggggjjjmmtrmmy...........+jgggjmjjdddddddddgr.
(PID.TID 0000.0001) //     32 gdddggo............rgddgddgjjjjddddgddm.........xx..+ttttrrrojggggo--dd-ggo--dd----dgddddddddddddddgggjjjjjtror..............oogdddgggjjgdddggo.
(PID.TID 0000.0001) //     31 jgddgdgy..........vgddgwrjgjmrg--ddgdddr........xxz.....y.xvtomjjdd---ddjdd---dd-jdddddddddddddddddggjjjjgggjjj................tg----dgmjgddgdgy
(PID.TID 0000.0001) //     30 jgdgd-dm..........vggjjovmgjmwd---dgddddmy...+xxxxy++....oo.vtjjgddg--ddgddg--dddjgddddddgjdddddddggjjjgggggggg................zd---dgjmjgdgd-dm
(PID.TID 0000.0001) //     29 jggd--dgy.........wjmmmjmyomjm---ddgdddddgjmooxxxx++++.+..vtvxrrgddjjjjggddjjjjggjmg-dgddgrgddgggggjmmjggggggddr...............yd---dgjmjggd--dg
(PID.TID 0000.0001) //     28 jjdd---gy.........wtr.gggymmjg--ddgj-djdggggggmxx+.....+ommromrvorrrtmmgorrrtmmgdgm--dgddgggggggggjjmjgggggggddd..............+gg---dgmmjjdd---g
(PID.TID 0000.0001) //     27 jgdd---g..........ww..gggymmjgdd-djj-dd---dgjjw+........vtmmmjjxmmotvrrgmmotvrrgddd-ggmtvroggggggjjmjjggjjggddddo.............ygd---dgjmjgdd---g
(PID.TID 0000.0001) //     26 jgdd---o..........rx..ddoromjgdd--gj-d-----jtw+..........ytrrotwrmrzvrjgrmrzvrjgdddgggojmromjgggjjjmjggggggddddjjg............yjd---dgjmjgdd---o
(PID.TID 0000.0001) //     25 jdd--dmo.........roz.rdomgjmmgddddgjd---dggox.............ztxxzyrmmmtv--rmmmtv----dgggggggmmjggggjjjjgggggggggmjddj...........rjgd--ddgmjdd--dmo
(PID.TID 0000.0001) //     24 gd---gogt.......zmjx.jdgdgggmjggddgjd--ddgmr..............zrrtmwoggjto--oggjto----ddddgggggjmjjjjjmjjgggjjjjjmmgdjj..........vjgd----djmgd---gog
(PID.TID 0000.0001) //     23 jgdddojdo.......wjgowj---dgjjmjggggjdddmdddr..............yjrtmrmjgjtmd-mjgjtmd------ddjmjgggggjjjmmmmmmmjjjjjjjggo........+omgddddddgjmjgdddojd
(PID.TID 0000.0001) //     22 jgddmgddj+.....yrddoojddgjggggmjgggooommgddd+.............yjrtororjmt-d-orjmt-d-------dddggdgggggjjmmmjjjjjjjgggggw........rjjmoojdddgjmjgddmgdd
(PID.TID 0000.0001) //     21 ggjjjdddgv.....mrddrogdjjgdddgjmjjmrgjmmgddgt....++.......rgrvovtrmom---trmom------------ddddgggggjmmjjjggjjjggggg+.......wjgggmmjdgggjjggjjjddd
(PID.TID 0000.0001) //     20 ggjgd---dgy.xjgjjddjjjjjgddddggjjjjgggdddddgjttjjjjt......gggrvtt.xrj--dt.xrj--d----------ddggjjggjjjjjjjjjjgggggj.......zjdddddgggggjjjggjgd---
(PID.TID 0000.0001) //     19 jjgd----gggjgjggddgjjjjgd-dddggjjjgggggddddddd------gv...jdddjtww..xjd-dw..xjd-dj--d-------dddddgggjjjgggjjjgggggj......zj-----ddggggjjjjjgd----
(PID.TID 0000.0001) //     18 jjgggdddjg--gjggdgjjjjjgd--dggjjjjjjjjggggddddd------dj..jddddjvy..tjjggy..tjjggdg-----------ddddggjjjggggjjjjgggv......r-------dddgjjjjjjgggddd
(PID.TID 0000.0001) //     17 gggjgdgdddddd--djjjjjjjgddddggjjjjjjjjjjggggdddddddddddvyjddddgv..wwwwrj..wwwwrjd-d-----------ddggjjjjjggggggjjjjz...++t--------ddddgjjjgggjgdgd
(PID.TID 0000.0001) //     16 jjgggdjgdddd--djjjjjjjjgddgjjjjjjjjjjjjjjjgggggdddddggdjrjddddj..vtrjgd-.vtrjgd----dddd-----ddddggjjjjjggdddggjjj....++r----------ddgjjjjjgggdjg
(PID.TID 0000.0001) //     15 jjjjjjjjgdddddgjggggggggdgjx.yjjjggggjjjjjjjjjgggggjjjgjjjdddgjjjjjjjd--jjjjjd------ddddddddddggjjjjjjggddddddggj....++xtjddggdddgjdgggjjjjjjjjj
(PID.TID 0000.0001) //     14 jjjjjjjjjjjjjgdddgjjjgggddgjjjjjjgdgggggggjjgggggggjjjjjggddjjjjjjjd----jjjd------dddddggjggggggjjjjjgggdddddddgjj..+jjjjjjjjjjjjgjjddggjjjjjjjj
(PID.TID 0000.0001) //     13 jjjjjjjgddgggg---gjggggddddjjjjjjgdddgggggggdddddddggjjjjgggjgjjjg------jg------ddddgjjjjjjjjjjjjjjjgggdgd----ddgjjjjjjjjjjjjjjjjggggddgjjjjjjjg
(PID.TID 0000.0001) //     12 gjggdd----dd--------------djjjjjjjdddddgdddddddddddddgjjjjjjjgd-----dddd----dddddddgjjjjjjjjjgggggdddddddddd---dddgjjjjgggjjjjjjjjvggggggjggdd--
(PID.TID 0000.0001) //     11 ------------------------dddddjjjrtjddddddddddddddddddgggjjjjjjjgddddddggddddddgggggjjjjjjgggdggddd--------------ddgjjjjjrrrvttrrjjjgggdd--------
(PID.TID 0000.0001) //     10 ----ggd--------d--ddgdddddgggggjjjjjjjjjjjjjjjjgggjjjjggggjjjjjjjjjjjjjjjjjjjjjjjjjjjjjgggddddd-----------dddddddggjrv..zvjjjggdddddd-------ggd-
(PID.TID 0000.0001) //      9 --ddjjggjjdddddjjggjtw..wrrrrrrrvvvw+........zxx++...zxvttrrjrjjjjjjjjjjjjjjjjjjjjgggggggggddddddddddddddddgdddggjt+...yxrjgdddddddgd-----ddjjgg
(PID.TID 0000.0001) //      8 jjjjjjjtvrjjjjv..............++.............................+trrjjjjjjggjjjjjjggggggdddddddddggjjjjggggddggjjjjjtz....+xxrjgggddddddddddjjjjjjjt
(PID.TID 0000.0001) //      7 .................................................................vttvtjg.vttvtjggggddgggddgggjjjjrttrrvxyzzyyyyy+......xxvtrjjggggggjjv+........
(PID.TID 0000.0001) //      6 ...............................................................+zyyyywjjzyyyywjjjjjgggjjrtwx+.........................+yxxyyyxwttvwy............
(PID.TID 0000.0001) //      5 ................................................................yyyyyyyyyyyyyyyyyyyyz.................................zzz+..+yy+................
(PID.TID 0000.0001) //      4 ................................................................................................................................................
(PID.TID 0000.0001) //      3 ................................................................................................................................................
(PID.TID 0000.0001) //      2 ................................................................................................................................................
(PID.TID 0000.0001) //      1 ................................................................................................................................................
(PID.TID 0000.0001) //      0 ................................................................................................................................................
(PID.TID 0000.0001) //     -1 ................................................................................................................................................
(PID.TID 0000.0001) //     -2 ................................................................................................................................................
(PID.TID 0000.0001) //     -3 ................................................................................................................................................
(PID.TID 0000.0001) // =======================================================
(PID.TID 0000.0001) // END OF FIELD                                          =
(PID.TID 0000.0001) // =======================================================
(PID.TID 0000.0001) 
(PID.TID 0000.0001) // =======================================================
(PID.TID 0000.0001) // Field Model Ro_surf (ini_masks_etc)
(PID.TID 0000.0001) // CMIN =          1.000000000000000E+32
(PID.TID 0000.0001) // CMAX =         -1.000000000000000E+32
(PID.TID 0000.0001) // CINT =          0.000000000000000E+00
(PID.TID 0000.0001) // SYMBOLS (CMIN->CMAX): -abcdefghijklmnopqrstuvwxyz+
(PID.TID 0000.0001) //                  0.0: .
(PID.TID 0000.0001) // RANGE I (Lo:Hi:Step):(    -3:   132:     1)
(PID.TID 0000.0001) // RANGE J (Lo:Hi:Step):(    68:    -3:    -1)
(PID.TID 0000.0001) // RANGE K (Lo:Hi:Step):(   1:   1:   1)
(PID.TID 0000.0001) // =======================================================
(PID.TID 0000.0001) // =======================================================
(PID.TID 0000.0001) // END OF FIELD                                          =
(PID.TID 0000.0001) // =======================================================
(PID.TID 0000.0001) 
(PID.TID 0000.0001) // =======================================================
(PID.TID 0000.0001) // Field hFacC at iteration          0
(PID.TID 0000.0001) // CMIN =          1.000000000000000E+00
(PID.TID 0000.0001) // CMAX =          1.000000000000000E+00
(PID.TID 0000.0001) // CINT =          0.000000000000000E+00
(PID.TID 0000.0001) // SYMBOLS (CMIN->CMAX): -abcdefghijklmnopqrstuvwxyz+
(PID.TID 0000.0001) //                  0.0: .
(PID.TID 0000.0001) // RANGE I (Lo:Hi:Step):(    -3:   132:     1)
(PID.TID 0000.0001) // RANGE J (Lo:Hi:Step):(    68:    -3:    -1)
(PID.TID 0000.0001) // RANGE K (Lo:Hi:Step):(   1:   1:   1)
(PID.TID 0000.0001) // =======================================================
(PID.TID 0000.0001) // =======================================================
(PID.TID 0000.0001) // END OF FIELD                                          =
(PID.TID 0000.0001) // =======================================================
(PID.TID 0000.0001) 
(PID.TID 0000.0001) // =======================================================
(PID.TID 0000.0001) // Field hFacW at iteration          0
(PID.TID 0000.0001) // CMIN =          1.000000000000000E+00
(PID.TID 0000.0001) // CMAX =          1.000000000000000E+00
(PID.TID 0000.0001) // CINT =          0.000000000000000E+00
(PID.TID 0000.0001) // SYMBOLS (CMIN->CMAX): -abcdefghijklmnopqrstuvwxyz+
(PID.TID 0000.0001) //                  0.0: .
(PID.TID 0000.0001) // RANGE I (Lo:Hi:Step):(    -3:   132:     1)
(PID.TID 0000.0001) // RANGE J (Lo:Hi:Step):(    68:    -3:    -1)
(PID.TID 0000.0001) // RANGE K (Lo:Hi:Step):(   1:   1:   1)
(PID.TID 0000.0001) // =======================================================
(PID.TID 0000.0001) // =======================================================
(PID.TID 0000.0001) // END OF FIELD                                          =
(PID.TID 0000.0001) // =======================================================
(PID.TID 0000.0001) 
(PID.TID 0000.0001) // =======================================================
(PID.TID 0000.0001) // Field hFacS at iteration          0
(PID.TID 0000.0001) // CMIN =          1.000000000000000E+00
(PID.TID 0000.0001) // CMAX =          1.000000000000000E+00
(PID.TID 0000.0001) // CINT =          0.000000000000000E+00
(PID.TID 0000.0001) // SYMBOLS (CMIN->CMAX): -abcdefghijklmnopqrstuvwxyz+
(PID.TID 0000.0001) //                  0.0: .
(PID.TID 0000.0001) // RANGE I (Lo:Hi:Step):(    -3:   132:     1)
(PID.TID 0000.0001) // RANGE J (Lo:Hi:Step):(    68:    -3:    -1)
(PID.TID 0000.0001) // RANGE K (Lo:Hi:Step):(   1:   1:   1)
(PID.TID 0000.0001) // =======================================================
(PID.TID 0000.0001) // =======================================================
(PID.TID 0000.0001) // END OF FIELD                                          =
(PID.TID 0000.0001) // =======================================================
(PID.TID 0000.0001) 
(PID.TID 0000.0001) GAD_INIT_FIXED: GAD_OlMinSize=  0  0  1
(PID.TID 0000.0001) 
(PID.TID 0000.0001) // ===================================
(PID.TID 0000.0001) // GAD parameters :
(PID.TID 0000.0001) // ===================================
(PID.TID 0000.0001) tempAdvScheme =   /* Temp. Horiz.Advection scheme selector */
(PID.TID 0000.0001)                       2
(PID.TID 0000.0001)     ;
(PID.TID 0000.0001) tempVertAdvScheme =   /* Temp. Vert. Advection scheme selector */
(PID.TID 0000.0001)                       2
(PID.TID 0000.0001)     ;
(PID.TID 0000.0001) tempMultiDimAdvec =   /* use Muti-Dim Advec method for Temp */
(PID.TID 0000.0001)                   F
(PID.TID 0000.0001)     ;
(PID.TID 0000.0001) tempSOM_Advection = /* use 2nd Order Moment Advection for Temp */
(PID.TID 0000.0001)                   F
(PID.TID 0000.0001)     ;
(PID.TID 0000.0001) AdamsBashforthGt = /* apply Adams-Bashforth extrapolation on Gt */
(PID.TID 0000.0001)                   F
(PID.TID 0000.0001)     ;
(PID.TID 0000.0001) AdamsBashforth_T = /* apply Adams-Bashforth extrapolation on Temp */
(PID.TID 0000.0001)                   F
(PID.TID 0000.0001)     ;
(PID.TID 0000.0001) saltAdvScheme =   /* Salt. Horiz.advection scheme selector */
(PID.TID 0000.0001)                       2
(PID.TID 0000.0001)     ;
(PID.TID 0000.0001) saltVertAdvScheme =   /* Salt. Vert. Advection scheme selector */
(PID.TID 0000.0001)                       2
(PID.TID 0000.0001)     ;
(PID.TID 0000.0001) saltMultiDimAdvec =   /* use Muti-Dim Advec method for Salt */
(PID.TID 0000.0001)                   F
(PID.TID 0000.0001)     ;
(PID.TID 0000.0001) saltSOM_Advection = /* use 2nd Order Moment Advection for Salt */
(PID.TID 0000.0001)                   F
(PID.TID 0000.0001)     ;
(PID.TID 0000.0001) AdamsBashforthGs = /* apply Adams-Bashforth extrapolation on Gs */
(PID.TID 0000.0001)                   F
(PID.TID 0000.0001)     ;
(PID.TID 0000.0001) AdamsBashforth_S = /* apply Adams-Bashforth extrapolation on Salt */
(PID.TID 0000.0001)                   F
(PID.TID 0000.0001)     ;
(PID.TID 0000.0001) // ===================================
(PID.TID 0000.0001) PTRACERS_INIT_FIXED: updated GAD_OlMinSize=  2  0  1
 QQ start cfc params
 QQ read cfc atmos data
(PID.TID 0000.0001) CFC_ATMOS: opening file "cfc1112.atm"
(PID.TID 0000.0001) CFC_ATMOS: read      68 (=ACFCnRec) time records :
(PID.TID 0000.0001)   year , cfc11_N, cfc12_N, cfc11_S, cfc12_S
(PID.TID 0000.0001)  1931.5     0.00     0.00     0.00     0.00
(PID.TID 0000.0001)  1932.5     0.00     0.01     0.00     0.01
(PID.TID 0000.0001)  1933.5     0.00     0.02     0.00     0.01
(PID.TID 0000.0001)  1934.5     0.00     0.03     0.00     0.02
(PID.TID 0000.0001)  1935.5     0.00     0.04     0.00     0.03
(PID.TID 0000.0001)  1936.5     0.00     0.07     0.00     0.04
(PID.TID 0000.0001)  1937.5     0.00     0.11     0.00     0.07
(PID.TID 0000.0001)  1938.5     0.00     0.17     0.00     0.11
(PID.TID 0000.0001)  1939.5     0.01     0.25     0.00     0.17
(PID.TID 0000.0001)  1940.5     0.01     0.37     0.01     0.25
(PID.TID 0000.0001)  1941.5     0.02     0.53     0.01     0.36
(PID.TID 0000.0001)  1942.5     0.02     0.72     0.02     0.51
(PID.TID 0000.0001)  1943.5     0.03     0.94     0.02     0.69
(PID.TID 0000.0001)  1944.5     0.04     1.25     0.03     0.91
(PID.TID 0000.0001)  1945.5     0.05     1.65     0.04     1.21
(PID.TID 0000.0001)  1946.5     0.08     2.33     0.05     1.64
(PID.TID 0000.0001)  1947.5     0.14     3.42     0.08     2.33
(PID.TID 0000.0001)  1948.5     0.24     4.73     0.14     3.32
(PID.TID 0000.0001)  1949.5     0.42     6.10     0.25     4.48
(PID.TID 0000.0001)  1950.5     0.67     7.58     0.42     5.77
(PID.TID 0000.0001)  1951.5     1.02     9.23     0.66     7.19
(PID.TID 0000.0001)  1952.5     1.53    10.94     1.01     8.72
(PID.TID 0000.0001)  1953.5     2.21    12.82     1.49    10.37
(PID.TID 0000.0001)  1954.5     3.07    14.97     2.13    12.20
(PID.TID 0000.0001)  1955.5     4.11    17.40     2.93    14.25
(PID.TID 0000.0001)  1956.5     5.39    20.22     3.92    16.59
(PID.TID 0000.0001)  1957.5     6.84    23.45     5.11    19.28
(PID.TID 0000.0001)  1958.5     8.19    26.86     6.39    22.28
(PID.TID 0000.0001)  1959.5     9.47    30.58     7.63    25.52
(PID.TID 0000.0001)  1960.5    11.13    35.03     8.96    29.18
(PID.TID 0000.0001)  1961.5    13.38    40.12    10.63    33.42
(PID.TID 0000.0001)  1962.5    16.23    45.89    12.78    38.25
(PID.TID 0000.0001)  1963.5    19.72    52.66    15.47    43.80
(PID.TID 0000.0001)  1964.5    23.87    60.57    18.75    50.28
(PID.TID 0000.0001)  1965.5    28.57    69.53    22.61    57.76
(PID.TID 0000.0001)  1966.5    33.78    79.46    26.99    66.21
(PID.TID 0000.0001)  1967.5    39.63    90.60    31.91    75.67
(PID.TID 0000.0001)  1968.5    46.27   103.16    37.46    86.31
(PID.TID 0000.0001)  1969.5    53.96   117.17    43.80    98.25
(PID.TID 0000.0001)  1970.5    62.75   132.52    51.07   111.52
(PID.TID 0000.0001)  1971.5    72.36   149.00    59.27   126.02
(PID.TID 0000.0001)  1972.5    83.04   166.85    68.34   141.70
(PID.TID 0000.0001)  1973.5    95.27   186.59    78.54   158.82
(PID.TID 0000.0001)  1974.5   108.81   208.14    90.04   177.62
(PID.TID 0000.0001)  1975.5   121.86   229.37   102.29   197.54
(PID.TID 0000.0001)  1976.5   134.47   249.51   114.40   217.31
(PID.TID 0000.0001)  1977.5   146.47   268.67   126.28   236.49
(PID.TID 0000.0001)  1978.5   157.18   286.35   137.45   254.72
(PID.TID 0000.0001)  1979.5   166.67   303.74   147.60   272.00
(PID.TID 0000.0001)  1980.5   175.11   320.96   158.08   290.34
(PID.TID 0000.0001)  1981.5   182.81   337.33   166.54   306.90
(PID.TID 0000.0001)  1982.5   189.88   352.01   174.69   323.74
(PID.TID 0000.0001)  1983.5   197.72   367.69   183.03   341.15
(PID.TID 0000.0001)  1984.5   206.34   383.86   190.95   357.80
(PID.TID 0000.0001)  1985.5   216.12   401.25   200.50   376.45
(PID.TID 0000.0001)  1986.5   227.48   420.96   209.82   394.00
(PID.TID 0000.0001)  1987.5   239.67   441.49   220.60   412.82
(PID.TID 0000.0001)  1988.5   251.05   463.22   231.46   433.46
(PID.TID 0000.0001)  1989.5   257.28   481.80   240.38   452.97
(PID.TID 0000.0001)  1990.5   263.65   493.96   249.23   470.55
(PID.TID 0000.0001)  1991.5   266.33   504.64   254.53   484.07
(PID.TID 0000.0001)  1992.5   266.00   512.87   258.80   495.65
(PID.TID 0000.0001)  1993.5   267.58   520.12   260.56   504.49
(PID.TID 0000.0001)  1994.5   267.24   526.58   261.73   512.31
(PID.TID 0000.0001)  1995.5   266.38   531.59   261.29   518.39
(PID.TID 0000.0001)  1996.5   265.25   534.81   261.08   523.50
(PID.TID 0000.0001)  1997.5   263.84   537.67   260.16   528.18
(PID.TID 0000.0001)  1998.5   263.84   537.67   260.16   528.18
(PID.TID 0000.0001) CFC_ATMOS: Setting atmos CFC time series: done
(PID.TID 0000.0001) %MON fCori_max                    =   1.4579854531444E-04
(PID.TID 0000.0001) %MON fCori_min                    =  -1.4579854531444E-04
(PID.TID 0000.0001) %MON fCori_mean                   =   2.3039296165317E-19
(PID.TID 0000.0001) %MON fCori_sd                     =   1.0312619976228E-04
(PID.TID 0000.0001) %MON fCoriG_max                   =   1.4566679669714E-04
(PID.TID 0000.0001) %MON fCoriG_min                   =  -1.4584247033981E-04
(PID.TID 0000.0001) %MON fCoriG_mean                  =  -2.2787885990593E-06
(PID.TID 0000.0001) %MON fCoriG_sd                    =   1.0310101939326E-04
(PID.TID 0000.0001) %MON fCoriCos_max                 =   1.4579854531444E-04
(PID.TID 0000.0001) %MON fCoriCos_min                 =   3.5791533929553E-06
(PID.TID 0000.0001) %MON fCoriCos_mean                =   9.2855522572229E-05
(PID.TID 0000.0001) %MON fCoriCos_sd                  =   4.4864964117307E-05
(PID.TID 0000.0001) INI_CG2D: CG2D normalisation factor =  6.8918025187312258E-05
(PID.TID 0000.0001) 
(PID.TID 0000.0001) // =======================================================
(PID.TID 0000.0001) // Model configuration
(PID.TID 0000.0001) // =======================================================
(PID.TID 0000.0001) //
(PID.TID 0000.0001) // "Physical" paramters ( PARM01 in namelist )
(PID.TID 0000.0001) //
(PID.TID 0000.0001) buoyancyRelation = /* Type of relation to get Buoyancy */
(PID.TID 0000.0001)               'OCEANIC'
(PID.TID 0000.0001)     ;
(PID.TID 0000.0001) fluidIsAir   =  /* fluid major constituent is Air */
(PID.TID 0000.0001)                   F
(PID.TID 0000.0001)     ;
(PID.TID 0000.0001) fluidIsWater =  /* fluid major constituent is Water */
(PID.TID 0000.0001)                   T
(PID.TID 0000.0001)     ;
(PID.TID 0000.0001) usingPCoords =  /* use p (or p*) vertical coordinate */
(PID.TID 0000.0001)                   F
(PID.TID 0000.0001)     ;
(PID.TID 0000.0001) usingZCoords =  /* use z (or z*) vertical coordinate */
(PID.TID 0000.0001)                   T
(PID.TID 0000.0001)     ;
(PID.TID 0000.0001) tRef =   /* Reference temperature profile ( oC or K ) */
(PID.TID 0000.0001)    15 @  2.000000000000000E+01              /* K =  1: 15 */
(PID.TID 0000.0001)     ;
(PID.TID 0000.0001) sRef =   /* Reference salinity profile ( psu ) */
(PID.TID 0000.0001)    15 @  3.500000000000000E+01              /* K =  1: 15 */
(PID.TID 0000.0001)     ;
(PID.TID 0000.0001) diffKhT =   /* Laplacian diffusion of heat laterally ( m^2/s ) */
(PID.TID 0000.0001)                 0.000000000000000E+00
(PID.TID 0000.0001)     ;
(PID.TID 0000.0001) diffK4T =   /* Biharmonic diffusion of heat laterally ( m^4/s ) */
(PID.TID 0000.0001)                 0.000000000000000E+00
(PID.TID 0000.0001)     ;
(PID.TID 0000.0001) diffKhS =   /* Laplacian diffusion of salt laterally ( m^2/s ) */
(PID.TID 0000.0001)                 0.000000000000000E+00
(PID.TID 0000.0001)     ;
(PID.TID 0000.0001) diffK4S =   /* Biharmonic diffusion of salt laterally ( m^4/s ) */
(PID.TID 0000.0001)                 0.000000000000000E+00
(PID.TID 0000.0001)     ;
(PID.TID 0000.0001) diffKrNrT = /* vertical profile of vertical diffusion of Temp ( m^2/s )*/
(PID.TID 0000.0001)    15 @  5.000000000000000E-05              /* K =  1: 15 */
(PID.TID 0000.0001)     ;
(PID.TID 0000.0001) diffKrNrS = /* vertical profile of vertical diffusion of Salt ( m^2/s )*/
(PID.TID 0000.0001)    15 @  5.000000000000000E-05              /* K =  1: 15 */
(PID.TID 0000.0001)     ;
(PID.TID 0000.0001) diffKrBL79surf = /* Surface diffusion for Bryan and Lewis 79 ( m^2/s ) */
(PID.TID 0000.0001)                 0.000000000000000E+00
(PID.TID 0000.0001)     ;
(PID.TID 0000.0001) diffKrBL79deep = /* Deep diffusion for Bryan and Lewis 1979 ( m^2/s ) */
(PID.TID 0000.0001)                 0.000000000000000E+00
(PID.TID 0000.0001)     ;
(PID.TID 0000.0001) diffKrBL79scl = /* Depth scale for Bryan and Lewis 1979 ( m ) */
(PID.TID 0000.0001)                 2.000000000000000E+02
(PID.TID 0000.0001)     ;
(PID.TID 0000.0001) diffKrBL79Ho = /* Turning depth for Bryan and Lewis 1979 ( m ) */
(PID.TID 0000.0001)                -2.000000000000000E+03
(PID.TID 0000.0001)     ;
(PID.TID 0000.0001) ivdc_kappa = /* Implicit Vertical Diffusivity for Convection ( m^2/s) */
(PID.TID 0000.0001)                 1.000000000000000E+02
(PID.TID 0000.0001)     ;
(PID.TID 0000.0001) hMixCriteria=  /* Criteria for mixed-layer diagnostic */
(PID.TID 0000.0001)                -8.000000000000000E-01
(PID.TID 0000.0001)     ;
(PID.TID 0000.0001) dRhoSmall =  /* Parameter for mixed-layer diagnostic */
(PID.TID 0000.0001)                 1.000000000000000E-06
(PID.TID 0000.0001)     ;
(PID.TID 0000.0001) hMixSmooth=  /* Smoothing parameter for mixed-layer diagnostic */
(PID.TID 0000.0001)                 0.000000000000000E+00
(PID.TID 0000.0001)     ;
(PID.TID 0000.0001) eosType =  /* Type of Equation of State */
(PID.TID 0000.0001)               'POLY3 '
(PID.TID 0000.0001)     ;
(PID.TID 0000.0001) Polynomial EQS parameters ( from POLY3.COEFFS ):
(PID.TID 0000.0001)   1  13.497  32.600  24.570  -0.202   0.771  -0.005  -0.002   0.000   0.000   0.000   0.000   0.000
(PID.TID 0000.0001)   2  13.488  32.600  24.840  -0.203   0.770  -0.005  -0.002   0.000   0.000   0.000   0.000   0.000
(PID.TID 0000.0001)   3  13.476  32.600  25.221  -0.205   0.770  -0.005  -0.002   0.000   0.000   0.000   0.000   0.000
(PID.TID 0000.0001)   4   8.469  35.150  28.657  -0.163   0.781  -0.005  -0.002   0.001   0.000   0.000   0.000   0.000
(PID.TID 0000.0001)   5   8.451  35.150  29.405  -0.167   0.780  -0.005  -0.002   0.001   0.000   0.000   0.000   0.000
(PID.TID 0000.0001)   6   5.940  34.900  30.574  -0.145   0.784  -0.006  -0.002   0.001   0.000   0.000   0.000   0.000
(PID.TID 0000.0001)   7   4.425  34.900  31.991  -0.135   0.786  -0.006  -0.003   0.000   0.000   0.000   0.000   0.000
(PID.TID 0000.0001)   8   2.911  34.750  33.505  -0.125   0.787  -0.006  -0.003  -0.000   0.000   0.000   0.000   0.000
(PID.TID 0000.0001)   9   1.893  34.800  35.333  -0.123   0.787  -0.006  -0.003  -0.000   0.000   0.000   0.000   0.000
(PID.TID 0000.0001)  10   1.367  34.800  37.279  -0.129   0.785  -0.006  -0.003  -0.001   0.000   0.000   0.000   0.000
(PID.TID 0000.0001)  11   1.328  34.800  39.372  -0.141   0.781  -0.006  -0.003  -0.002   0.000   0.000   0.000   0.000
(PID.TID 0000.0001)  12   0.792  34.800  41.739  -0.149   0.778  -0.006  -0.003  -0.001   0.000   0.000   0.000   0.000
(PID.TID 0000.0001)  13   0.737  34.750  44.192  -0.163   0.774  -0.005  -0.002  -0.003   0.000   0.000   0.000   0.000
(PID.TID 0000.0001)  14   0.188  34.750  46.956  -0.174   0.770  -0.005  -0.002  -0.002   0.000   0.000   0.000   0.000
(PID.TID 0000.0001)  15   0.596  34.750  49.726  -0.195   0.764  -0.005  -0.002  -0.001   0.000   0.000   0.000   0.000
(PID.TID 0000.0001)     ;
(PID.TID 0000.0001) HeatCapacity_Cp =  /* Specific heat capacity ( J/kg/K ) */
(PID.TID 0000.0001)                 3.994000000000000E+03
(PID.TID 0000.0001)     ;
(PID.TID 0000.0001) celsius2K = /* 0 degree Celsius converted to Kelvin ( K ) */
(PID.TID 0000.0001)                 2.731500000000000E+02
(PID.TID 0000.0001)     ;
(PID.TID 0000.0001) rhoConst  = /* Reference density (Boussinesq)  ( kg/m^3 ) */
(PID.TID 0000.0001)                 1.035000000000000E+03
(PID.TID 0000.0001)     ;
(PID.TID 0000.0001) rhoFacC = /* normalized Reference density @ cell-Center (-) */
(PID.TID 0000.0001)    15 @  1.000000000000000E+00              /* K =  1: 15 */
(PID.TID 0000.0001)     ;
(PID.TID 0000.0001) rhoFacF = /* normalized Reference density @ W-Interface (-) */
(PID.TID 0000.0001)    16 @  1.000000000000000E+00              /* K =  1: 16 */
(PID.TID 0000.0001)     ;
(PID.TID 0000.0001) rhoConstFresh = /* Fresh-water reference density ( kg/m^3 ) */
(PID.TID 0000.0001)                 1.035000000000000E+03
(PID.TID 0000.0001)     ;
(PID.TID 0000.0001) gravity =   /* Gravitational acceleration ( m/s^2 ) */
(PID.TID 0000.0001)                 9.810000000000000E+00
(PID.TID 0000.0001)     ;
(PID.TID 0000.0001) gBaro =   /* Barotropic gravity ( m/s^2 ) */
(PID.TID 0000.0001)                 9.810000000000000E+00
(PID.TID 0000.0001)     ;
(PID.TID 0000.0001) rotationPeriod =   /* Rotation Period ( s ) */
(PID.TID 0000.0001)                 8.616400000000000E+04
(PID.TID 0000.0001)     ;
(PID.TID 0000.0001) omega =   /* Angular velocity ( rad/s ) */
(PID.TID 0000.0001)                 7.292123516990375E-05
(PID.TID 0000.0001)     ;
(PID.TID 0000.0001) f0 =   /* Reference coriolis parameter ( 1/s ) */
(PID.TID 0000.0001)                 1.000000000000000E-04
(PID.TID 0000.0001)     ;
(PID.TID 0000.0001) beta =   /* Beta ( 1/(m.s) ) */
(PID.TID 0000.0001)                 9.999999999999999E-12
(PID.TID 0000.0001)     ;
(PID.TID 0000.0001) fPrime =   /* Second coriolis parameter ( 1/s ) */
(PID.TID 0000.0001)                 0.000000000000000E+00
(PID.TID 0000.0001)     ;
(PID.TID 0000.0001) rigidLid =   /* Rigid lid on/off flag */
(PID.TID 0000.0001)                   F
(PID.TID 0000.0001)     ;
(PID.TID 0000.0001) implicitFreeSurface =   /* Implicit free surface on/off flag */
(PID.TID 0000.0001)                   T
(PID.TID 0000.0001)     ;
(PID.TID 0000.0001) freeSurfFac =   /* Implicit free surface factor */
(PID.TID 0000.0001)                 1.000000000000000E+00
(PID.TID 0000.0001)     ;
(PID.TID 0000.0001) implicSurfPress =  /* Surface Pressure implicit factor (0-1)*/
(PID.TID 0000.0001)                 1.000000000000000E+00
(PID.TID 0000.0001)     ;
(PID.TID 0000.0001) implicDiv2Dflow =  /* Barot. Flow Div. implicit factor (0-1)*/
(PID.TID 0000.0001)                 1.000000000000000E+00
(PID.TID 0000.0001)     ;
(PID.TID 0000.0001) uniformLin_PhiSurf = /* use uniform Bo_surf on/off flag*/
(PID.TID 0000.0001)                   T
(PID.TID 0000.0001)     ;
(PID.TID 0000.0001) uniformFreeSurfLev = /* free-surface level-index is uniform */
(PID.TID 0000.0001)                   T
(PID.TID 0000.0001)     ;
(PID.TID 0000.0001) hFacMin =   /* minimum partial cell factor (hFac) */
(PID.TID 0000.0001)                 1.000000000000000E+00
(PID.TID 0000.0001)     ;
(PID.TID 0000.0001) hFacMinDr = /* minimum partial cell thickness ( m) */
(PID.TID 0000.0001)                 0.000000000000000E+00
(PID.TID 0000.0001)     ;
(PID.TID 0000.0001) exactConserv =  /* Exact Volume Conservation on/off flag*/
(PID.TID 0000.0001)                   F
(PID.TID 0000.0001)     ;
(PID.TID 0000.0001) linFSConserveTr = /* Tracer correction for Lin Free Surface on/off flag*/
(PID.TID 0000.0001)                   F
(PID.TID 0000.0001)     ;
(PID.TID 0000.0001) nonlinFreeSurf = /* Non-linear Free Surf. options (-1,0,1,2,3)*/
(PID.TID 0000.0001)                       0
(PID.TID 0000.0001)      -1,0= Off ; 1,2,3= On, 2=+rescale gU,gV, 3=+update cg2d solv.
(PID.TID 0000.0001)     ;
(PID.TID 0000.0001) hFacInf =   /* lower threshold for hFac (nonlinFreeSurf only)*/
(PID.TID 0000.0001)                 2.000000000000000E-01
(PID.TID 0000.0001)     ;
(PID.TID 0000.0001) hFacSup =   /* upper threshold for hFac (nonlinFreeSurf only)*/
(PID.TID 0000.0001)                 2.000000000000000E+00
(PID.TID 0000.0001)     ;
(PID.TID 0000.0001) select_rStar = /* r* Vertical coord. options (=0 r coord.; >0 uses r*)*/
(PID.TID 0000.0001)                       0
(PID.TID 0000.0001)     ;
(PID.TID 0000.0001) useRealFreshWaterFlux = /* Real Fresh Water Flux on/off flag*/
(PID.TID 0000.0001)                   F
(PID.TID 0000.0001)     ;
(PID.TID 0000.0001) temp_EvPrRn = /* Temp. of Evap/Prec/R (UNSET=use local T)(oC)*/
(PID.TID 0000.0001)                 1.234567000000000E+05
(PID.TID 0000.0001)     ;
(PID.TID 0000.0001) salt_EvPrRn = /* Salin. of Evap/Prec/R (UNSET=use local S)(psu)*/
(PID.TID 0000.0001)                 0.000000000000000E+00
(PID.TID 0000.0001)     ;
(PID.TID 0000.0001) selectAddFluid = /* option for mass source/sink of fluid (=0: off) */
(PID.TID 0000.0001)                       0
(PID.TID 0000.0001)     ;
(PID.TID 0000.0001) temp_addMass = /* Temp. of addMass array (UNSET=use local T)(oC)*/
(PID.TID 0000.0001)                 1.234567000000000E+05
(PID.TID 0000.0001)     ;
(PID.TID 0000.0001) salt_addMass = /* Salin. of addMass array (UNSET=use local S)(psu)*/
(PID.TID 0000.0001)                 0.000000000000000E+00
(PID.TID 0000.0001)     ;
(PID.TID 0000.0001) convertFW2Salt = /* convert F.W. Flux to Salt Flux (-1=use local S)(psu)*/
(PID.TID 0000.0001)                 3.500000000000000E+01
(PID.TID 0000.0001)     ;
(PID.TID 0000.0001) use3Dsolver = /* use 3-D pressure solver on/off flag */
(PID.TID 0000.0001)                   F
(PID.TID 0000.0001)     ;
(PID.TID 0000.0001) nonHydrostatic =  /* Non-Hydrostatic on/off flag */
(PID.TID 0000.0001)                   F
(PID.TID 0000.0001)     ;
(PID.TID 0000.0001) nh_Am2 = /* Non-Hydrostatic terms scaling factor */
(PID.TID 0000.0001)                 1.000000000000000E+00
(PID.TID 0000.0001)     ;
(PID.TID 0000.0001) implicitNHPress = /* Non-Hyd Pressure implicit factor (0-1)*/
(PID.TID 0000.0001)                 1.000000000000000E+00
(PID.TID 0000.0001)     ;
(PID.TID 0000.0001) selectNHfreeSurf = /* Non-Hyd (free-)Surface option */
(PID.TID 0000.0001)                       0
(PID.TID 0000.0001)     ;
(PID.TID 0000.0001) quasiHydrostatic = /* Quasi-Hydrostatic on/off flag */
(PID.TID 0000.0001)                   F
(PID.TID 0000.0001)     ;
(PID.TID 0000.0001) calc_wVelocity = /* vertical velocity calculation on/off flag */
(PID.TID 0000.0001)                   F
(PID.TID 0000.0001)     ;
(PID.TID 0000.0001) momStepping =  /* Momentum equation on/off flag */
(PID.TID 0000.0001)                   F
(PID.TID 0000.0001)     ;
(PID.TID 0000.0001) vectorInvariantMomentum= /* Vector-Invariant Momentum on/off */
(PID.TID 0000.0001)                   F
(PID.TID 0000.0001)     ;
(PID.TID 0000.0001) momAdvection =  /* Momentum advection on/off flag */
(PID.TID 0000.0001)                   F
(PID.TID 0000.0001)     ;
(PID.TID 0000.0001) momViscosity =  /* Momentum viscosity on/off flag */
(PID.TID 0000.0001)                   F
(PID.TID 0000.0001)     ;
(PID.TID 0000.0001) momImplVertAdv= /* Momentum implicit vert. advection on/off*/
(PID.TID 0000.0001)                   F
(PID.TID 0000.0001)     ;
(PID.TID 0000.0001) implicitViscosity = /* Implicit viscosity on/off flag */
(PID.TID 0000.0001)                   F
(PID.TID 0000.0001)     ;
(PID.TID 0000.0001) implBottomFriction= /* Implicit bottom friction on/off flag */
(PID.TID 0000.0001)                   F
(PID.TID 0000.0001)     ;
(PID.TID 0000.0001) metricTerms =  /* metric-Terms on/off flag */
(PID.TID 0000.0001)                   T
(PID.TID 0000.0001)     ;
(PID.TID 0000.0001) useNHMTerms = /* Non-Hydrostatic Metric-Terms on/off */
(PID.TID 0000.0001)                   F
(PID.TID 0000.0001)     ;
(PID.TID 0000.0001) selectCoriMap = /* Coriolis Map options (0,1,2,3)*/
(PID.TID 0000.0001)                       2
(PID.TID 0000.0001)     0= f-Plane ; 1= Beta-Plane ; 2= Spherical ; 3= read from file
(PID.TID 0000.0001)     ;
(PID.TID 0000.0001) use3dCoriolis = /* 3-D Coriolis on/off flag */
(PID.TID 0000.0001)                   F
(PID.TID 0000.0001)     ;
(PID.TID 0000.0001) useCoriolis =  /* Coriolis on/off flag */
(PID.TID 0000.0001)                   F
(PID.TID 0000.0001)     ;
(PID.TID 0000.0001) useCDscheme =  /* CD scheme on/off flag */
(PID.TID 0000.0001)                   F
(PID.TID 0000.0001)     ;
(PID.TID 0000.0001) useEnergyConservingCoriolis= /* Flx-Form Coriolis scheme flag */
(PID.TID 0000.0001)                   F
(PID.TID 0000.0001)     ;
(PID.TID 0000.0001) useJamartWetPoints= /* Coriolis WetPoints method flag */
(PID.TID 0000.0001)                   F
(PID.TID 0000.0001)     ;
(PID.TID 0000.0001) useJamartMomAdv= /* V.I Non-linear terms Jamart flag */
(PID.TID 0000.0001)                   F
(PID.TID 0000.0001)     ;
(PID.TID 0000.0001) useAbsVorticity= /* V.I Works with f+zeta in Coriolis */
(PID.TID 0000.0001)                   F
(PID.TID 0000.0001)     ;
(PID.TID 0000.0001) selectVortScheme= /* V.I Scheme selector for Vorticity-Term */
(PID.TID 0000.0001)               123456789
(PID.TID 0000.0001)    = 0 : enstrophy (Shallow-Water Eq.) conserving scheme by Sadourny, JAS 75
(PID.TID 0000.0001)    = 1 : same as 0 with modified hFac
(PID.TID 0000.0001)    = 2 : energy conserving scheme (used by Sadourny in JAS 75 paper)
(PID.TID 0000.0001)    = 3 : energy (general) and enstrophy (2D, nonDiv.) conserving scheme
(PID.TID 0000.0001)          from Sadourny (Burridge & Haseler, ECMWF Rep.4, 1977)
(PID.TID 0000.0001)     ;
(PID.TID 0000.0001) upwindVorticity= /* V.I Upwind bias vorticity flag */
(PID.TID 0000.0001)                   F
(PID.TID 0000.0001)     ;
(PID.TID 0000.0001) highOrderVorticity= /* V.I High order vort. advect. flag */
(PID.TID 0000.0001)                   F
(PID.TID 0000.0001)     ;
(PID.TID 0000.0001) upwindShear= /* V.I Upwind vertical Shear advection flag */
(PID.TID 0000.0001)                   F
(PID.TID 0000.0001)     ;
(PID.TID 0000.0001) selectKEscheme= /* V.I Kinetic Energy scheme selector */
(PID.TID 0000.0001)                       0
(PID.TID 0000.0001)     ;
(PID.TID 0000.0001) momForcing =  /* Momentum forcing on/off flag */
(PID.TID 0000.0001)                   F
(PID.TID 0000.0001)     ;
(PID.TID 0000.0001) momPressureForcing =  /* Momentum pressure term on/off flag */
(PID.TID 0000.0001)                   F
(PID.TID 0000.0001)     ;
(PID.TID 0000.0001) implicitIntGravWave= /* Implicit Internal Gravity Wave flag */
(PID.TID 0000.0001)                   F
(PID.TID 0000.0001)     ;
(PID.TID 0000.0001) staggerTimeStep =    /* Stagger time stepping on/off flag */
(PID.TID 0000.0001)                   F
(PID.TID 0000.0001)     ;
(PID.TID 0000.0001) doResetHFactors = /* reset thickness factors @ each time-step */
(PID.TID 0000.0001)                   F
(PID.TID 0000.0001)     ;
(PID.TID 0000.0001) multiDimAdvection =  /* enable/disable Multi-Dim Advection */
(PID.TID 0000.0001)                   F
(PID.TID 0000.0001)     ;
(PID.TID 0000.0001) useMultiDimAdvec =   /* Multi-Dim Advection is/is-not used */
(PID.TID 0000.0001)                   F
(PID.TID 0000.0001)     ;
(PID.TID 0000.0001) implicitDiffusion = /* Implicit Diffusion on/off flag */
(PID.TID 0000.0001)                   T
(PID.TID 0000.0001)     ;
(PID.TID 0000.0001) tempStepping =  /* Temperature equation on/off flag */
(PID.TID 0000.0001)                   F
(PID.TID 0000.0001)     ;
(PID.TID 0000.0001) tempAdvection = /* Temperature advection on/off flag */
(PID.TID 0000.0001)                   F
(PID.TID 0000.0001)     ;
(PID.TID 0000.0001) tempImplVertAdv = /* Temp. implicit vert. advection on/off */
(PID.TID 0000.0001)                   F
(PID.TID 0000.0001)     ;
(PID.TID 0000.0001) tempForcing  =  /* Temperature forcing on/off flag */
(PID.TID 0000.0001)                   F
(PID.TID 0000.0001)     ;
(PID.TID 0000.0001) doThetaClimRelax = /* apply SST relaxation on/off flag */
(PID.TID 0000.0001)                   F
(PID.TID 0000.0001)     ;
(PID.TID 0000.0001) tempIsActiveTr = /* Temp. is a dynamically Active Tracer */
(PID.TID 0000.0001)                   F
(PID.TID 0000.0001)     ;
(PID.TID 0000.0001) saltStepping =  /* Salinity equation on/off flag */
(PID.TID 0000.0001)                   F
(PID.TID 0000.0001)     ;
(PID.TID 0000.0001) saltAdvection = /* Salinity advection on/off flag */
(PID.TID 0000.0001)                   F
(PID.TID 0000.0001)     ;
(PID.TID 0000.0001) saltImplVertAdv = /* Sali. implicit vert. advection on/off */
(PID.TID 0000.0001)                   F
(PID.TID 0000.0001)     ;
(PID.TID 0000.0001) saltForcing  =  /* Salinity forcing on/off flag */
(PID.TID 0000.0001)                   F
(PID.TID 0000.0001)     ;
(PID.TID 0000.0001) doSaltClimRelax = /* apply SSS relaxation on/off flag */
(PID.TID 0000.0001)                   F
(PID.TID 0000.0001)     ;
(PID.TID 0000.0001) saltIsActiveTr = /* Salt  is a dynamically Active Tracer */
(PID.TID 0000.0001)                   F
(PID.TID 0000.0001)     ;
(PID.TID 0000.0001)  readBinaryPrec = /* Precision used for reading binary files */
(PID.TID 0000.0001)                      32
(PID.TID 0000.0001)     ;
(PID.TID 0000.0001) writeBinaryPrec = /* Precision used for writing binary files */
(PID.TID 0000.0001)                      32
(PID.TID 0000.0001)     ;
(PID.TID 0000.0001)  globalFiles = /* write "global" (=not per tile) files */
(PID.TID 0000.0001)                   F
(PID.TID 0000.0001)     ;
(PID.TID 0000.0001)  useSingleCpuIO = /* only master MPI process does I/O */
(PID.TID 0000.0001)                   F
(PID.TID 0000.0001)     ;
(PID.TID 0000.0001)  useSingleCpuInput = /* only master process reads input */
(PID.TID 0000.0001)                   F
(PID.TID 0000.0001)     ;
(PID.TID 0000.0001) /* debLev[*]  : level of debug & auxiliary message printing */
(PID.TID 0000.0001) debLevZero =  0 ; /* level of disabled aux. msg printing */
(PID.TID 0000.0001)    debLevA =  1 ; /* level of minimum  aux. msg printing */
(PID.TID 0000.0001)    debLevB =  2 ; /* level of low aux. print (report read-file opening)*/
(PID.TID 0000.0001)    debLevC =  3 ; /* level of moderate debug prt (most pkgs debug msg) */
(PID.TID 0000.0001)    debLevD =  4 ; /* level of enhanced debug prt (add DEBUG_STATS prt) */
(PID.TID 0000.0001)    debLevE =  5 ; /* level of extensive debug printing */
(PID.TID 0000.0001) debugLevel =  /* select debug printing level */
(PID.TID 0000.0001)                       2
(PID.TID 0000.0001)     ;
(PID.TID 0000.0001) //
(PID.TID 0000.0001) // Elliptic solver(s) paramters ( PARM02 in namelist )
(PID.TID 0000.0001) //
(PID.TID 0000.0001) cg2dMaxIters =   /* Upper limit on 2d con. grad iterations  */
(PID.TID 0000.0001)                    1000
(PID.TID 0000.0001)     ;
(PID.TID 0000.0001) cg2dChkResFreq =   /* 2d con. grad convergence test frequency */
(PID.TID 0000.0001)                       1
(PID.TID 0000.0001)     ;
(PID.TID 0000.0001) cg2dUseMinResSol= /* use cg2d last-iter(=0) / min-resid.(=1) solution */
(PID.TID 0000.0001)                       0
(PID.TID 0000.0001)     ;
(PID.TID 0000.0001) cg2dTargetResidual =   /* 2d con. grad target residual  */
(PID.TID 0000.0001)                 1.000000000000000E-13
(PID.TID 0000.0001)     ;
(PID.TID 0000.0001) cg2dTargetResWunit =   /* CG2d target residual [W units] */
(PID.TID 0000.0001)                -1.000000000000000E+00
(PID.TID 0000.0001)     ;
(PID.TID 0000.0001) cg2dPreCondFreq =   /* Freq. for updating cg2d preconditioner */
(PID.TID 0000.0001)                       1
(PID.TID 0000.0001)     ;
(PID.TID 0000.0001) useSRCGSolver =  /* use single reduction CG solver(s) */
(PID.TID 0000.0001)                   F
(PID.TID 0000.0001)     ;
(PID.TID 0000.0001) printResidualFreq = /* Freq. for printing CG residual */
(PID.TID 0000.0001)                       0
(PID.TID 0000.0001)     ;
(PID.TID 0000.0001) //
(PID.TID 0000.0001) // Time stepping paramters ( PARM03 in namelist )
(PID.TID 0000.0001) //
(PID.TID 0000.0001) deltaTMom =   /* Momentum equation timestep ( s ) */
(PID.TID 0000.0001)                 9.000000000000000E+02
(PID.TID 0000.0001)     ;
(PID.TID 0000.0001) deltaTFreeSurf = /* FreeSurface equation timestep ( s ) */
(PID.TID 0000.0001)                 9.000000000000000E+02
(PID.TID 0000.0001)     ;
(PID.TID 0000.0001) dTtracerLev =  /* Tracer equation timestep ( s ) */
(PID.TID 0000.0001)    15 @  4.320000000000000E+04              /* K =  1: 15 */
(PID.TID 0000.0001)     ;
(PID.TID 0000.0001) deltaTClock  =   /* Model clock timestep ( s ) */
(PID.TID 0000.0001)                 4.320000000000000E+04
(PID.TID 0000.0001)     ;
(PID.TID 0000.0001) cAdjFreq =   /* Convective adjustment interval ( s ) */
(PID.TID 0000.0001)                 0.000000000000000E+00
(PID.TID 0000.0001)     ;
(PID.TID 0000.0001) momForcingOutAB = /* =1: take Momentum Forcing out of Adams-Bash. stepping */
(PID.TID 0000.0001)                       0
(PID.TID 0000.0001)     ;
(PID.TID 0000.0001) tracForcingOutAB = /* =1: take T,S,pTr Forcing out of Adams-Bash. stepping */
(PID.TID 0000.0001)                       0
(PID.TID 0000.0001)     ;
(PID.TID 0000.0001) momDissip_In_AB = /* put Dissipation Tendency in Adams-Bash. stepping */
(PID.TID 0000.0001)                   T
(PID.TID 0000.0001)     ;
(PID.TID 0000.0001) doAB_onGtGs = /* apply AB on Tendencies (rather than on T,S)*/
(PID.TID 0000.0001)                   T
(PID.TID 0000.0001)     ;
(PID.TID 0000.0001) abEps =   /* Adams-Bashforth-2 stabilizing weight */
(PID.TID 0000.0001)                 1.000000000000000E-01
(PID.TID 0000.0001)     ;
(PID.TID 0000.0001) pickupStrictlyMatch= /* stop if pickup do not strictly match */
(PID.TID 0000.0001)                   T
(PID.TID 0000.0001)     ;
(PID.TID 0000.0001) nIter0   =   /* Run starting timestep number */
(PID.TID 0000.0001)                 4269600
(PID.TID 0000.0001)     ;
(PID.TID 0000.0001) nTimeSteps = /* Number of timesteps */
(PID.TID 0000.0001)                       4
(PID.TID 0000.0001)     ;
(PID.TID 0000.0001) nEndIter =   /* Run ending timestep number */
(PID.TID 0000.0001)                 4269604
(PID.TID 0000.0001)     ;
(PID.TID 0000.0001) baseTime =   /* Model base time ( s ) */
(PID.TID 0000.0001)                 0.000000000000000E+00
(PID.TID 0000.0001)     ;
(PID.TID 0000.0001) startTime =  /* Run start time ( s ) */
(PID.TID 0000.0001)                 1.844467200000000E+11
(PID.TID 0000.0001)     ;
(PID.TID 0000.0001) endTime  =   /* Integration ending time ( s ) */
(PID.TID 0000.0001)                 1.844468928000000E+11
(PID.TID 0000.0001)     ;
(PID.TID 0000.0001) pChkPtFreq = /* Permanent restart/pickup file interval ( s ) */
(PID.TID 0000.0001)                 3.110400000000000E+09
(PID.TID 0000.0001)     ;
(PID.TID 0000.0001) chkPtFreq  = /* Rolling restart/pickup file interval ( s ) */
(PID.TID 0000.0001)                 0.000000000000000E+00
(PID.TID 0000.0001)     ;
(PID.TID 0000.0001) pickup_write_mdsio =   /* Model IO flag. */
(PID.TID 0000.0001)                   T
(PID.TID 0000.0001)     ;
(PID.TID 0000.0001) pickup_read_mdsio =   /* Model IO flag. */
(PID.TID 0000.0001)                   T
(PID.TID 0000.0001)     ;
(PID.TID 0000.0001) pickup_write_immed =   /* Model IO flag. */
(PID.TID 0000.0001)                   F
(PID.TID 0000.0001)     ;
(PID.TID 0000.0001) writePickupAtEnd =   /* Model IO flag. */
(PID.TID 0000.0001)                   T
(PID.TID 0000.0001)     ;
(PID.TID 0000.0001) dumpFreq =   /* Model state write out interval ( s ). */
(PID.TID 0000.0001)                 3.110400000000000E+07
(PID.TID 0000.0001)     ;
(PID.TID 0000.0001) dumpInitAndLast= /* write out Initial & Last iter. model state */
(PID.TID 0000.0001)                   T
(PID.TID 0000.0001)     ;
(PID.TID 0000.0001) snapshot_mdsio =   /* Model IO flag. */
(PID.TID 0000.0001)                   T
(PID.TID 0000.0001)     ;
(PID.TID 0000.0001) monitorFreq =   /* Monitor output interval ( s ). */
(PID.TID 0000.0001)                 2.592000000000000E+06
(PID.TID 0000.0001)     ;
(PID.TID 0000.0001) monitorSelect = /* select group of variables to monitor */
[...]
(PID.TID 0000.0001) CFC12_FORCING: aCFC12_N =     43.005000 , aCFC12_S =     35.835000
 OFFLINE_FIELDS_LOAD,   4269601 : iP,iLd,i0,i1=   12    1   12    1 ; Wght=  0.4833333333  0.5166666667
(PID.TID 0000.0001) // =======================================================
(PID.TID 0000.0001) // Begin MONITOR ptracer field statistics
(PID.TID 0000.0001) // =======================================================
(PID.TID 0000.0001) %MON trctime_tsnumber             =               4269601
(PID.TID 0000.0001) %MON trctime_secondsf             =   1.8444676320000E+11
(PID.TID 0000.0001) %MON trcstat_ptracer01_max        =   3.6016341520802E-10
(PID.TID 0000.0001) %MON trcstat_ptracer01_min        =  -3.6083580399257E-12
(PID.TID 0000.0001) %MON trcstat_ptracer01_mean       =   1.0782430121516E-11
(PID.TID 0000.0001) %MON trcstat_ptracer01_sd         =   3.0762979748252E-11
(PID.TID 0000.0001) %MON trcstat_ptracer01_del2       =   4.8498214494057E-14
(PID.TID 0000.0001) %MON trcstat_ptracer02_max        =   3.0028850397787E-10
(PID.TID 0000.0001) %MON trcstat_ptracer02_min        =  -2.3537560743630E-12
(PID.TID 0000.0001) %MON trcstat_ptracer02_mean       =   1.1015611825655E-11
(PID.TID 0000.0001) %MON trcstat_ptracer02_sd         =   2.8637130078393E-11
(PID.TID 0000.0001) %MON trcstat_ptracer02_del2       =   4.0195936570073E-14
(PID.TID 0000.0001) // =======================================================
(PID.TID 0000.0001) // End MONITOR ptracers field statistics
(PID.TID 0000.0001) // =======================================================
 EXTERNAL_FIELDS_LOAD,   4269601 : iP,iLd,i0,i1=   12    1   12    1 ; Wght=  0.4833333333  0.5166666667
 CFC_FIELDS_LOAD,   4269601 : iP,iLd,i0,i1=   12    1   12    1 ; Wght=  0.4833333333  0.5166666667
(PID.TID 0000.0001) CFC11_FORCING: iter,rec0,w0,yr0 =         4269601    31   0.4986 1961.5
(PID.TID 0000.0001) CFC11_FORCING: cfcT,rec1,w1,yr1 =   9.6426720E+08    32   0.5014 1962.5
(PID.TID 0000.0001) CFC11_FORCING: aCFC11_N =     14.808958 , aCFC11_S =     11.707986
(PID.TID 0000.0001) CFC12_FORCING: iter,rec0,w0,yr0 =         4269601    31   0.4986 1961.5
(PID.TID 0000.0001) CFC12_FORCING: cfcT,rec1,w1,yr1 =   9.6426720E+08    32   0.5014 1962.5
(PID.TID 0000.0001) CFC12_FORCING: aCFC12_N =     43.013014 , aCFC12_S =     35.841708
 OFFLINE_FIELDS_LOAD,   4269602 : iP,iLd,i0,i1=   12    1   12    1 ; Wght=  0.4666666667  0.5333333333
(PID.TID 0000.0001) // =======================================================
(PID.TID 0000.0001) // Begin MONITOR ptracer field statistics
(PID.TID 0000.0001) // =======================================================
(PID.TID 0000.0001) %MON trctime_tsnumber             =               4269602
(PID.TID 0000.0001) %MON trctime_secondsf             =   1.8444680640000E+11
(PID.TID 0000.0001) %MON trcstat_ptracer01_max        =   3.6238142365451E-10
(PID.TID 0000.0001) %MON trcstat_ptracer01_min        =  -3.6088802445607E-12
(PID.TID 0000.0001) %MON trcstat_ptracer01_mean       =   1.0795176825430E-11
(PID.TID 0000.0001) %MON trcstat_ptracer01_sd         =   3.0815270914173E-11
(PID.TID 0000.0001) %MON trcstat_ptracer01_del2       =   4.8572852656860E-14
(PID.TID 0000.0001) %MON trcstat_ptracer02_max        =   3.0044071739815E-10
(PID.TID 0000.0001) %MON trcstat_ptracer02_min        =  -2.3539582641748E-12
(PID.TID 0000.0001) %MON trcstat_ptracer02_mean       =   1.1017479534800E-11
(PID.TID 0000.0001) %MON trcstat_ptracer02_sd         =   2.8640023974926E-11
(PID.TID 0000.0001) %MON trcstat_ptracer02_del2       =   4.0086381695666E-14
(PID.TID 0000.0001) // =======================================================
(PID.TID 0000.0001) // End MONITOR ptracers field statistics
(PID.TID 0000.0001) // =======================================================
 EXTERNAL_FIELDS_LOAD,   4269602 : iP,iLd,i0,i1=   12    1   12    1 ; Wght=  0.4666666667  0.5333333333
 CFC_FIELDS_LOAD,   4269602 : iP,iLd,i0,i1=   12    1   12    1 ; Wght=  0.4666666667  0.5333333333
(PID.TID 0000.0001) CFC11_FORCING: iter,rec0,w0,yr0 =         4269602    31   0.4972 1961.5
(PID.TID 0000.0001) CFC11_FORCING: cfcT,rec1,w1,yr1 =   9.6431040E+08    32   0.5028 1962.5
(PID.TID 0000.0001) CFC11_FORCING: aCFC11_N =     14.812917 , aCFC11_S =     11.710972
(PID.TID 0000.0001) CFC12_FORCING: iter,rec0,w0,yr0 =         4269602    31   0.4972 1961.5
(PID.TID 0000.0001) CFC12_FORCING: cfcT,rec1,w1,yr1 =   9.6431040E+08    32   0.5028 1962.5
(PID.TID 0000.0001) CFC12_FORCING: aCFC12_N =     43.021028 , aCFC12_S =     35.848417
 OFFLINE_FIELDS_LOAD,   4269603 : iP,iLd,i0,i1=   12    1   12    1 ; Wght=  0.4500000000  0.5500000000
(PID.TID 0000.0001) // =======================================================
(PID.TID 0000.0001) // Begin MONITOR ptracer field statistics
(PID.TID 0000.0001) // =======================================================
(PID.TID 0000.0001) %MON trctime_tsnumber             =               4269603
(PID.TID 0000.0001) %MON trctime_secondsf             =   1.8444684960000E+11
(PID.TID 0000.0001) %MON trcstat_ptracer01_max        =   3.6452252626333E-10
(PID.TID 0000.0001) %MON trcstat_ptracer01_min        =  -3.6094011901849E-12
(PID.TID 0000.0001) %MON trcstat_ptracer01_mean       =   1.0807570575779E-11
(PID.TID 0000.0001) %MON trcstat_ptracer01_sd         =   3.0866501872172E-11
(PID.TID 0000.0001) %MON trcstat_ptracer01_del2       =   4.8628484017683E-14
(PID.TID 0000.0001) %MON trcstat_ptracer02_max        =   3.0058989029795E-10
(PID.TID 0000.0001) %MON trcstat_ptracer02_min        =  -2.3541606274181E-12
(PID.TID 0000.0001) %MON trcstat_ptracer02_mean       =   1.1019394277968E-11
(PID.TID 0000.0001) %MON trcstat_ptracer02_sd         =   2.8643524133324E-11
(PID.TID 0000.0001) %MON trcstat_ptracer02_del2       =   3.9982839823227E-14
(PID.TID 0000.0001) // =======================================================
(PID.TID 0000.0001) // End MONITOR ptracers field statistics
(PID.TID 0000.0001) // =======================================================
 EXTERNAL_FIELDS_LOAD,   4269603 : iP,iLd,i0,i1=   12    1   12    1 ; Wght=  0.4500000000  0.5500000000
 CFC_FIELDS_LOAD,   4269603 : iP,iLd,i0,i1=   12    1   12    1 ; Wght=  0.4500000000  0.5500000000
(PID.TID 0000.0001) CFC11_FORCING: iter,rec0,w0,yr0 =         4269603    31   0.4958 1961.5
(PID.TID 0000.0001) CFC11_FORCING: cfcT,rec1,w1,yr1 =   9.6435360E+08    32   0.5042 1962.5
(PID.TID 0000.0001) CFC11_FORCING: aCFC11_N =     14.816875 , aCFC11_S =     11.713958
(PID.TID 0000.0001) CFC12_FORCING: iter,rec0,w0,yr0 =         4269603    31   0.4958 1961.5
(PID.TID 0000.0001) CFC12_FORCING: cfcT,rec1,w1,yr1 =   9.6435360E+08    32   0.5042 1962.5
(PID.TID 0000.0001) CFC12_FORCING: aCFC12_N =     43.029042 , aCFC12_S =     35.855125
 OFFLINE_FIELDS_LOAD,   4269604 : iP,iLd,i0,i1=   12    1   12    1 ; Wght=  0.4333333333  0.5666666667
(PID.TID 0000.0001) // =======================================================
(PID.TID 0000.0001) // Begin MONITOR ptracer field statistics
(PID.TID 0000.0001) // =======================================================
(PID.TID 0000.0001) %MON trctime_tsnumber             =               4269604
(PID.TID 0000.0001) %MON trctime_secondsf             =   1.8444689280000E+11
(PID.TID 0000.0001) %MON trcstat_ptracer01_max        =   3.6658986613282E-10
(PID.TID 0000.0001) %MON trcstat_ptracer01_min        =  -3.6099208696791E-12
(PID.TID 0000.0001) %MON trcstat_ptracer01_mean       =   1.0819623774759E-11
(PID.TID 0000.0001) %MON trcstat_ptracer01_sd         =   3.0916578959424E-11
(PID.TID 0000.0001) %MON trcstat_ptracer01_del2       =   4.8712191239565E-14
(PID.TID 0000.0001) %MON trcstat_ptracer02_max        =   3.0073612388974E-10
(PID.TID 0000.0001) %MON trcstat_ptracer02_min        =  -2.3543631685558E-12
(PID.TID 0000.0001) %MON trcstat_ptracer02_mean       =   1.1021342751320E-11
(PID.TID 0000.0001) %MON trcstat_ptracer02_sd         =   2.8647439498408E-11
(PID.TID 0000.0001) %MON trcstat_ptracer02_del2       =   3.9920147848491E-14
(PID.TID 0000.0001) // =======================================================
(PID.TID 0000.0001) // End MONITOR ptracers field statistics
(PID.TID 0000.0001) // =======================================================
(PID.TID 0000.0001) %CHECKPOINT   4269604 ckptA
(PID.TID 0000.0001)   Seconds in section "ALL                    [THE_MODEL_MAIN]":
(PID.TID 0000.0001)           User time:   4.3799999999999999
(PID.TID 0000.0001)         System time:  0.13000000000000000
(PID.TID 0000.0001)     Wall clock time:   4.7509949207305908
(PID.TID 0000.0001)          No. starts:           1
(PID.TID 0000.0001)           No. stops:           1
(PID.TID 0000.0001)   Seconds in section "INITIALISE_FIXED       [THE_MODEL_MAIN]":
(PID.TID 0000.0001)           User time:  0.23999999999999999
(PID.TID 0000.0001)         System time:  1.00000000000000002E-002
(PID.TID 0000.0001)     Wall clock time:  0.27858185768127441
(PID.TID 0000.0001)          No. starts:           1
(PID.TID 0000.0001)           No. stops:           1
(PID.TID 0000.0001)   Seconds in section "THE_MAIN_LOOP          [THE_MODEL_MAIN]":
(PID.TID 0000.0001)           User time:   4.1399999999999997
(PID.TID 0000.0001)         System time:  0.12000000000000001
(PID.TID 0000.0001)     Wall clock time:   4.4723689556121826
(PID.TID 0000.0001)          No. starts:           1
(PID.TID 0000.0001)           No. stops:           1
(PID.TID 0000.0001)   Seconds in section "INITIALISE_VARIA    [THE_MAIN_LOOP]":
(PID.TID 0000.0001)           User time:  0.84000000000000008
(PID.TID 0000.0001)         System time:  0.10000000000000001
(PID.TID 0000.0001)     Wall clock time:   1.1236000061035156
(PID.TID 0000.0001)          No. starts:           1
(PID.TID 0000.0001)           No. stops:           1
(PID.TID 0000.0001)   Seconds in section "MAIN LOOP           [THE_MAIN_LOOP]":
(PID.TID 0000.0001)           User time:   3.2999999999999998
(PID.TID 0000.0001)         System time:  2.00000000000000039E-002
(PID.TID 0000.0001)     Wall clock time:   3.3487370014190674
(PID.TID 0000.0001)          No. starts:           1
(PID.TID 0000.0001)           No. stops:           1
(PID.TID 0000.0001)   Seconds in section "MAIN_DO_LOOP        [THE_MAIN_LOOP]":
(PID.TID 0000.0001)           User time:   3.2999999999999998
(PID.TID 0000.0001)         System time:  2.00000000000000178E-002
(PID.TID 0000.0001)     Wall clock time:   3.3486914634704590
(PID.TID 0000.0001)          No. starts:           4
(PID.TID 0000.0001)           No. stops:           4
(PID.TID 0000.0001)   Seconds in section "FORWARD_STEP        [MAIN_DO_LOOP]":
(PID.TID 0000.0001)           User time:   3.2999999999999998
(PID.TID 0000.0001)         System time:  2.00000000000000178E-002
(PID.TID 0000.0001)     Wall clock time:   3.3486180305480957
(PID.TID 0000.0001)          No. starts:           4
(PID.TID 0000.0001)           No. stops:           4
(PID.TID 0000.0001)   Seconds in section "LOAD_FIELDS_DRIVER  [FORWARD_STEP]":
(PID.TID 0000.0001)           User time:  1.00000000000002309E-002
(PID.TID 0000.0001)         System time:  1.00000000000000089E-002
(PID.TID 0000.0001)     Wall clock time:  4.05235290527343750E-002
(PID.TID 0000.0001)          No. starts:           4
(PID.TID 0000.0001)           No. stops:           4
(PID.TID 0000.0001)   Seconds in section "EXTERNAL_FLDS_LOAD [LOAD_FLDS_DRIVER]":
(PID.TID 0000.0001)           User time:  1.00000000000002309E-002
(PID.TID 0000.0001)         System time:   0.0000000000000000
(PID.TID 0000.0001)     Wall clock time:  2.82979011535644531E-003
(PID.TID 0000.0001)          No. starts:           4
(PID.TID 0000.0001)           No. stops:           4
(PID.TID 0000.0001)   Seconds in section "DO_ATMOSPHERIC_PHYS [FORWARD_STEP]":
(PID.TID 0000.0001)           User time:   0.0000000000000000
(PID.TID 0000.0001)         System time:   0.0000000000000000
(PID.TID 0000.0001)     Wall clock time:  4.72068786621093750E-005
(PID.TID 0000.0001)          No. starts:           4
(PID.TID 0000.0001)           No. stops:           4
(PID.TID 0000.0001)   Seconds in section "DO_OCEANIC_PHYS     [FORWARD_STEP]":
(PID.TID 0000.0001)           User time:  0.16999999999999993
(PID.TID 0000.0001)         System time:   0.0000000000000000
(PID.TID 0000.0001)     Wall clock time:  0.16517496109008789
(PID.TID 0000.0001)          No. starts:           4
(PID.TID 0000.0001)           No. stops:           4
(PID.TID 0000.0001)   Seconds in section "GCHEM_CALC_TENDENCY [FORWARD_STEP]":
(PID.TID 0000.0001)           User time:  4.00000000000000355E-002
(PID.TID 0000.0001)         System time:   0.0000000000000000
(PID.TID 0000.0001)     Wall clock time:  3.63149642944335938E-002
(PID.TID 0000.0001)          No. starts:           4
(PID.TID 0000.0001)           No. stops:           4
(PID.TID 0000.0001)   Seconds in section "THERMODYNAMICS      [FORWARD_STEP]":
(PID.TID 0000.0001)           User time:   2.2800000000000002
(PID.TID 0000.0001)         System time:   0.0000000000000000
(PID.TID 0000.0001)     Wall clock time:   2.2903239727020264
(PID.TID 0000.0001)          No. starts:           4
(PID.TID 0000.0001)           No. stops:           4
(PID.TID 0000.0001)   Seconds in section "OFFLINE_FLDS_LOAD   [FORWARD_STEP]":
(PID.TID 0000.0001)           User time:  0.11999999999999922
(PID.TID 0000.0001)         System time:   0.0000000000000000
(PID.TID 0000.0001)     Wall clock time:  0.12203192710876465
(PID.TID 0000.0001)          No. starts:           4
(PID.TID 0000.0001)           No. stops:           4
(PID.TID 0000.0001)   Seconds in section "TRC_CORRECTION_STEP [FORWARD_STEP]":
(PID.TID 0000.0001)           User time:   0.0000000000000000
(PID.TID 0000.0001)         System time:   0.0000000000000000
(PID.TID 0000.0001)     Wall clock time:  4.10079956054687500E-005
(PID.TID 0000.0001)          No. starts:           4
(PID.TID 0000.0001)           No. stops:           4
(PID.TID 0000.0001)   Seconds in section "GCHEM_FORCING_SEP  [FORWARD_STEP]":
(PID.TID 0000.0001)           User time:   0.0000000000000000
(PID.TID 0000.0001)         System time:   0.0000000000000000
(PID.TID 0000.0001)     Wall clock time:  3.69548797607421875E-005
(PID.TID 0000.0001)          No. starts:           4
(PID.TID 0000.0001)           No. stops:           4
(PID.TID 0000.0001)   Seconds in section "BLOCKING_EXCHANGES  [FORWARD_STEP]":
(PID.TID 0000.0001)           User time:  9.99999999999978684E-003
(PID.TID 0000.0001)         System time:   0.0000000000000000
(PID.TID 0000.0001)     Wall clock time:  1.97310447692871094E-002
(PID.TID 0000.0001)          No. starts:           4
(PID.TID 0000.0001)           No. stops:           4
(PID.TID 0000.0001)   Seconds in section "DO_STATEVARS_TAVE   [FORWARD_STEP]":
(PID.TID 0000.0001)           User time:  0.50000000000000089
(PID.TID 0000.0001)         System time:   0.0000000000000000
(PID.TID 0000.0001)     Wall clock time:  0.50228333473205566
(PID.TID 0000.0001)          No. starts:           4
(PID.TID 0000.0001)           No. stops:           4
(PID.TID 0000.0001)   Seconds in section "MONITOR             [FORWARD_STEP]":
(PID.TID 0000.0001)           User time:   0.0000000000000000
(PID.TID 0000.0001)         System time:   0.0000000000000000
(PID.TID 0000.0001)     Wall clock time:  4.00543212890625000E-005
(PID.TID 0000.0001)          No. starts:           4
(PID.TID 0000.0001)           No. stops:           4
(PID.TID 0000.0001)   Seconds in section "DO_THE_MODEL_IO     [FORWARD_STEP]":
(PID.TID 0000.0001)           User time:  0.16000000000000014
(PID.TID 0000.0001)         System time:  1.00000000000000089E-002
(PID.TID 0000.0001)     Wall clock time:  0.15312409400939941
(PID.TID 0000.0001)          No. starts:           4
(PID.TID 0000.0001)           No. stops:           4
(PID.TID 0000.0001)   Seconds in section "PTRACERS_RESET      [FORWARD_STEP]":
(PID.TID 0000.0001)           User time:   0.0000000000000000
(PID.TID 0000.0001)         System time:   0.0000000000000000
(PID.TID 0000.0001)     Wall clock time:  4.00543212890625000E-005
(PID.TID 0000.0001)          No. starts:           4
(PID.TID 0000.0001)           No. stops:           4
(PID.TID 0000.0001)   Seconds in section "DO_WRITE_PICKUP     [FORWARD_STEP]":
(PID.TID 0000.0001)           User time:  9.99999999999978684E-003
(PID.TID 0000.0001)         System time:   0.0000000000000000
(PID.TID 0000.0001)     Wall clock time:  1.82778835296630859E-002
(PID.TID 0000.0001)          No. starts:           4
(PID.TID 0000.0001)           No. stops:           4
(PID.TID 0000.0001) // ======================================================
(PID.TID 0000.0001) // Tile <-> Tile communication statistics
(PID.TID 0000.0001) // ======================================================
(PID.TID 0000.0001) // o Tile number: 000001
(PID.TID 0000.0001) //         No. X exchanges =              0
(PID.TID 0000.0001) //            Max. X spins =              0
(PID.TID 0000.0001) //            Min. X spins =     1000000000
(PID.TID 0000.0001) //          Total. X spins =              0
(PID.TID 0000.0001) //            Avg. X spins =       0.00E+00
(PID.TID 0000.0001) //         No. Y exchanges =              0
(PID.TID 0000.0001) //            Max. Y spins =              0
(PID.TID 0000.0001) //            Min. Y spins =     1000000000
(PID.TID 0000.0001) //          Total. Y spins =              0
(PID.TID 0000.0001) //            Avg. Y spins =       0.00E+00
(PID.TID 0000.0001) // o Tile number: 000002
(PID.TID 0000.0001) //         No. X exchanges =              0
(PID.TID 0000.0001) //            Max. X spins =              0
(PID.TID 0000.0001) //            Min. X spins =     1000000000
(PID.TID 0000.0001) //          Total. X spins =              0
(PID.TID 0000.0001) //            Avg. X spins =       0.00E+00
(PID.TID 0000.0001) //         No. Y exchanges =              0
(PID.TID 0000.0001) //            Max. Y spins =              0
(PID.TID 0000.0001) //            Min. Y spins =     1000000000
(PID.TID 0000.0001) //          Total. Y spins =              0
(PID.TID 0000.0001) //            Avg. Y spins =       0.00E+00
(PID.TID 0000.0001) // o Tile number: 000003
(PID.TID 0000.0001) //         No. X exchanges =              0
(PID.TID 0000.0001) //            Max. X spins =              0
(PID.TID 0000.0001) //            Min. X spins =     1000000000
(PID.TID 0000.0001) //          Total. X spins =              0
(PID.TID 0000.0001) //            Avg. X spins =       0.00E+00
(PID.TID 0000.0001) //         No. Y exchanges =              0
(PID.TID 0000.0001) //            Max. Y spins =              0
(PID.TID 0000.0001) //            Min. Y spins =     1000000000
(PID.TID 0000.0001) //          Total. Y spins =              0
(PID.TID 0000.0001) //            Avg. Y spins =       0.00E+00
(PID.TID 0000.0001) // o Tile number: 000004
(PID.TID 0000.0001) //         No. X exchanges =              0
(PID.TID 0000.0001) //            Max. X spins =              0
(PID.TID 0000.0001) //            Min. X spins =     1000000000
(PID.TID 0000.0001) //          Total. X spins =              0
(PID.TID 0000.0001) //            Avg. X spins =       0.00E+00
(PID.TID 0000.0001) //         No. Y exchanges =              0
(PID.TID 0000.0001) //            Max. Y spins =              0
(PID.TID 0000.0001) //            Min. Y spins =     1000000000
(PID.TID 0000.0001) //          Total. Y spins =              0
(PID.TID 0000.0001) //            Avg. Y spins =       0.00E+00
(PID.TID 0000.0001) // o Thread number: 000001
(PID.TID 0000.0001) //            No. barriers =            686
(PID.TID 0000.0001) //      Max. barrier spins =              1
(PID.TID 0000.0001) //      Min. barrier spins =              1
(PID.TID 0000.0001) //     Total barrier spins =            686
(PID.TID 0000.0001) //      Avg. barrier spins =       1.00E+00
PROGRAM MAIN: Execution ended Normally
