(PID.TID 0000.0001) 
(PID.TID 0000.0001) // ======================================================
(PID.TID 0000.0001) //                      MITgcm UV
(PID.TID 0000.0001) //                      =========
(PID.TID 0000.0001) // ======================================================
(PID.TID 0000.0001) // execution environment starting up...
(PID.TID 0000.0001) 
(PID.TID 0000.0001) // MITgcmUV version:  checkpoint58m_post
(PID.TID 0000.0001) // Build user:        jmc
(PID.TID 0000.0001) // Build host:        faulks
(PID.TID 0000.0001) // Build date:        Fri Aug  4 20:43:01 EDT 2006
(PID.TID 0000.0001) 
(PID.TID 0000.0001) // =======================================================
(PID.TID 0000.0001) // Execution Environment parameter file "eedata"
(PID.TID 0000.0001) // =======================================================
(PID.TID 0000.0001) ># Example "eedata" file
(PID.TID 0000.0001) ># Lines beginning "#" are comments
(PID.TID 0000.0001) ># nTx - No. threads per process in X
(PID.TID 0000.0001) ># nTy - No. threads per process in Y
(PID.TID 0000.0001) > &EEPARMS
(PID.TID 0000.0001) > nTx=1,
(PID.TID 0000.0001) > nTy=1,
(PID.TID 0000.0001) > &
(PID.TID 0000.0001) ># Note: Some systems use & as the
(PID.TID 0000.0001) ># namelist terminator. Other systems
(PID.TID 0000.0001) ># use a / character (as shown here).
(PID.TID 0000.0001) 
(PID.TID 0000.0001) // =======================================================
(PID.TID 0000.0001) // Computational Grid Specification ( see files "SIZE.h" )
(PID.TID 0000.0001) //                                  ( and "eedata"       )
(PID.TID 0000.0001) // =======================================================
(PID.TID 0000.0001)      nPx =    1 ; /* No. processes in X */
(PID.TID 0000.0001)      nPy =    1 ; /* No. processes in Y */
(PID.TID 0000.0001)      nSx =    2 ; /* No. tiles in X per process */
(PID.TID 0000.0001)      nSy =    2 ; /* No. tiles in Y per process */
(PID.TID 0000.0001)      sNx =   64 ; /* Tile size in X */
(PID.TID 0000.0001)      sNy =   32 ; /* Tile size in Y */
(PID.TID 0000.0001)      OLx =    4 ; /* Tile overlap distance in X */
(PID.TID 0000.0001)      OLy =    4 ; /* Tile overlap distance in Y */
(PID.TID 0000.0001)      nTx =    1 ; /* No. threads in X per process */
(PID.TID 0000.0001)      nTy =    1 ; /* No. threads in Y per process */
(PID.TID 0000.0001)       Nr =   15 ; /* No. levels in the vertical   */
(PID.TID 0000.0001)       nX =  128 ; /* Total domain size in X ( = nPx*nSx*sNx ) */
(PID.TID 0000.0001)       nY =   64 ; /* Total domain size in Y ( = nPy*nSy*sNy ) */
(PID.TID 0000.0001)   nTiles =    4 ; /* Total no. tiles per process ( = nSx*nSy ) */
(PID.TID 0000.0001)   nProcs =    1 ; /* Total no. processes ( = nPx*nPy ) */
(PID.TID 0000.0001) nThreads =    1 ; /* Total no. threads per process ( = nTx*nTy ) */
(PID.TID 0000.0001) usingMPI =    F ; /* Flag used to control whether MPI is in use */
(PID.TID 0000.0001)                   /*  note: To execute a program with MPI calls */
(PID.TID 0000.0001)                   /*  it must be launched appropriately e.g     */
(PID.TID 0000.0001)                   /*  "mpirun -np 64 ......"                    */
(PID.TID 0000.0001) useCoupler=   F ; /* Flag used to control communications with */
(PID.TID 0000.0001)                   /*  other model components, through a coupler */
(PID.TID 0000.0001) 
(PID.TID 0000.0001) // ======================================================
(PID.TID 0000.0001) // Mapping of tiles to threads
(PID.TID 0000.0001) // ======================================================
(PID.TID 0000.0001) // -o- Thread   1, tiles (   1:   2,   1:   2)
(PID.TID 0000.0001) 
(PID.TID 0000.0001) // ======================================================
(PID.TID 0000.0001) // Tile <-> Tile connectvity table
(PID.TID 0000.0001) // ======================================================
(PID.TID 0000.0001) // Tile number: 000001 (process no. = 000001)
(PID.TID 0000.0001) //        WEST: Tile = 000002, Process = 000001, Comm = put
(PID.TID 0000.0001) //                bi = 000002, bj = 000001
(PID.TID 0000.0001) //        EAST: Tile = 000002, Process = 000001, Comm = put
(PID.TID 0000.0001) //                bi = 000002, bj = 000001
(PID.TID 0000.0001) //       SOUTH: Tile = 000003, Process = 000001, Comm = put
(PID.TID 0000.0001) //                bi = 000001, bj = 000002
(PID.TID 0000.0001) //       NORTH: Tile = 000003, Process = 000001, Comm = put
(PID.TID 0000.0001) //                bi = 000001, bj = 000002
(PID.TID 0000.0001) // Tile number: 000002 (process no. = 000001)
(PID.TID 0000.0001) //        WEST: Tile = 000001, Process = 000001, Comm = put
(PID.TID 0000.0001) //                bi = 000001, bj = 000001
(PID.TID 0000.0001) //        EAST: Tile = 000001, Process = 000001, Comm = put
(PID.TID 0000.0001) //                bi = 000001, bj = 000001
(PID.TID 0000.0001) //       SOUTH: Tile = 000004, Process = 000001, Comm = put
(PID.TID 0000.0001) //                bi = 000002, bj = 000002
(PID.TID 0000.0001) //       NORTH: Tile = 000004, Process = 000001, Comm = put
(PID.TID 0000.0001) //                bi = 000002, bj = 000002
(PID.TID 0000.0001) // Tile number: 000003 (process no. = 000001)
(PID.TID 0000.0001) //        WEST: Tile = 000004, Process = 000001, Comm = put
(PID.TID 0000.0001) //                bi = 000002, bj = 000002
(PID.TID 0000.0001) //        EAST: Tile = 000004, Process = 000001, Comm = put
(PID.TID 0000.0001) //                bi = 000002, bj = 000002
(PID.TID 0000.0001) //       SOUTH: Tile = 000001, Process = 000001, Comm = put
(PID.TID 0000.0001) //                bi = 000001, bj = 000001
(PID.TID 0000.0001) //       NORTH: Tile = 000001, Process = 000001, Comm = put
(PID.TID 0000.0001) //                bi = 000001, bj = 000001
(PID.TID 0000.0001) // Tile number: 000004 (process no. = 000001)
(PID.TID 0000.0001) //        WEST: Tile = 000003, Process = 000001, Comm = put
(PID.TID 0000.0001) //                bi = 000001, bj = 000002
(PID.TID 0000.0001) //        EAST: Tile = 000003, Process = 000001, Comm = put
(PID.TID 0000.0001) //                bi = 000001, bj = 000002
(PID.TID 0000.0001) //       SOUTH: Tile = 000002, Process = 000001, Comm = put
(PID.TID 0000.0001) //                bi = 000002, bj = 000001
(PID.TID 0000.0001) //       NORTH: Tile = 000002, Process = 000001, Comm = put
(PID.TID 0000.0001) //                bi = 000002, bj = 000001
(PID.TID 0000.0001) 
(PID.TID 0000.0001) // =======================================================
(PID.TID 0000.0001) // Model parameter file "data"
(PID.TID 0000.0001) // =======================================================
(PID.TID 0000.0001) ># ====================
(PID.TID 0000.0001) ># | Model parameters |
(PID.TID 0000.0001) ># ====================
(PID.TID 0000.0001) >#
(PID.TID 0000.0001) ># Continuous equation parameters
(PID.TID 0000.0001) > &PARM01
(PID.TID 0000.0001) > tRef=15*20.,
(PID.TID 0000.0001) > sRef=15*35.,
(PID.TID 0000.0001) > viscA4=0.,
(PID.TID 0000.0001) > viscAh=5.E5,
(PID.TID 0000.0001) > diffKhT=0.E3,
(PID.TID 0000.0001) > diffKhS=0.E3,
(PID.TID 0000.0001) > viscAr=1.E-3,
(PID.TID 0000.0001) > diffKrT=5.E-5,
(PID.TID 0000.0001) > diffKrS=5.E-5,
(PID.TID 0000.0001) > beta=1.E-11,
(PID.TID 0000.0001) > f0=1.e-4,
(PID.TID 0000.0001) > tAlpha=2.E-4,
(PID.TID 0000.0001) > sBeta =7.4E-4,
(PID.TID 0000.0001) > gravity=9.81,
(PID.TID 0000.0001) > gBaro=9.81,
(PID.TID 0000.0001) > rhonil=1035.,
(PID.TID 0000.0001) > rigidLid=.FALSE.,
(PID.TID 0000.0001) > implicitFreeSurface=.TRUE.,
(PID.TID 0000.0001) > eosType='POLY3',
(PID.TID 0000.0001) > implicitDiffusion=.TRUE.,
(PID.TID 0000.0001) > implicitViscosity=.TRUE.,
(PID.TID 0000.0001) > ivdc_kappa=100.,
(PID.TID 0000.0001) > multiDimAdvection   = .FALSE.
(PID.TID 0000.0001) > allowFreezing=.TRUE.,
(PID.TID 0000.0001) > useCDscheme=.FALSE.,
(PID.TID 0000.0001) > &
(PID.TID 0000.0001) >
(PID.TID 0000.0001) ># Elliptic solver parameters
(PID.TID 0000.0001) > &PARM02
(PID.TID 0000.0001) > cg2dMaxIters=1000,
(PID.TID 0000.0001) > cg2dTargetResidual=1.E-13,
(PID.TID 0000.0001) > &
(PID.TID 0000.0001) >
(PID.TID 0000.0001) ># Time stepping parameters
(PID.TID 0000.0001) > &PARM03
(PID.TID 0000.0001) > nIter0  = 4269600,
(PID.TID 0000.0001) > nTimeSteps = 4,
(PID.TID 0000.0001) ># 100 years starting from a spinup of 5900 years:
(PID.TID 0000.0001) >#startTime = 1.835136E+11,
(PID.TID 0000.0001) >#endTime   = 1.866240E+11,
(PID.TID 0000.0001) > deltaTmom = 900.0,
(PID.TID 0000.0001) >#tauCD =     321428.,
(PID.TID 0000.0001) > deltaTtracer= 43200.0,
(PID.TID 0000.0001) > deltaTClock = 43200.0,
(PID.TID 0000.0001) > abEps = 0.1,
(PID.TID 0000.0001) >#cAdjFreq = -1,
(PID.TID 0000.0001) >#EH3   These following *very* small periods are
(PID.TID 0000.0001) >#EH3   for IO testing purposes only
(PID.TID 0000.0001) >#EH3 pChkptFreq=311040000.,
(PID.TID 0000.0001) >#EH3 chkptFreq= 311040000.,
(PID.TID 0000.0001) >#EH3 dumpFreq=  311040000.,
(PID.TID 0000.0001) >#EH3 taveFreq=  311040000.,
(PID.TID 0000.0001) > pChkptFreq=3110400000.,
(PID.TID 0000.0001) > chkptFreq= 3110400000.,
(PID.TID 0000.0001) > dumpFreq=  31104000.,
(PID.TID 0000.0001) > taveFreq=  31104000.,
(PID.TID 0000.0001) > monitorFreq= 1.,
(PID.TID 0000.0001) > tauThetaClimRelax = 5184000.0,
(PID.TID 0000.0001) > tauSaltClimRelax =  7776000.0,
(PID.TID 0000.0001) > periodicExternalForcing=.TRUE.,
(PID.TID 0000.0001) > externForcingPeriod=2592000.,
(PID.TID 0000.0001) > externForcingCycle=31104000.,
(PID.TID 0000.0001) > &
(PID.TID 0000.0001) >
(PID.TID 0000.0001) ># Gridding parameters
(PID.TID 0000.0001) > &PARM04
(PID.TID 0000.0001) > usingCartesianGrid=.FALSE.,
(PID.TID 0000.0001) > usingSphericalPolarGrid=.TRUE.,
(PID.TID 0000.0001) > delR=  50.,  70., 100., 140., 190.,
(PID.TID 0000.0001) >       240., 290., 340., 390., 440.,
(PID.TID 0000.0001) >       490., 540., 590., 640., 690.,
(PID.TID 0000.0001) > phiMin=-90.,
(PID.TID 0000.0001) > dxSpacing=2.8125,
(PID.TID 0000.0001) > dySpacing=2.8125,
(PID.TID 0000.0001) > &
(PID.TID 0000.0001) >
(PID.TID 0000.0001) ># Input datasets
(PID.TID 0000.0001) > &PARM05
(PID.TID 0000.0001) > bathyFile=      'depth_g77.bin',
(PID.TID 0000.0001) > hydrogThetaFile='lev_clim_temp.bin',
(PID.TID 0000.0001) > hydrogSaltFile= 'lev_clim_salt.bin',
(PID.TID 0000.0001) > zonalWindFile=  'tren_taux.bin',
(PID.TID 0000.0001) > meridWindFile=  'tren_tauy.bin',
(PID.TID 0000.0001) > thetaClimFile=  'lev_monthly_temp.bin',
(PID.TID 0000.0001) > saltClimFile=   'lev_monthly_salt.bin',
(PID.TID 0000.0001) > surfQFile=      'shi_qnet.bin',
(PID.TID 0000.0001) > EmPmRFile=      'shi_empmr_year.bin',
(PID.TID 0000.0001) > the_run_name=   'Testing CFC and OFFLINE code',
(PID.TID 0000.0001) > &
(PID.TID 0000.0001) 
(PID.TID 0000.0001) S/R INI_PARMS ; starts to read PARM01
(PID.TID 0000.0001) S/R INI_PARMS ; read PARM01 : OK
(PID.TID 0000.0001) S/R INI_PARMS ; starts to read PARM02
(PID.TID 0000.0001) S/R INI_PARMS ; read PARM02 : OK
(PID.TID 0000.0001) S/R INI_PARMS ; starts to read PARM03
(PID.TID 0000.0001) S/R INI_PARMS ; read PARM03 : OK
(PID.TID 0000.0001) S/R INI_PARMS ; starts to read PARM04
(PID.TID 0000.0001) S/R INI_PARMS ; read PARM04 : OK
(PID.TID 0000.0001) S/R INI_PARMS ; starts to read PARM05
(PID.TID 0000.0001) S/R INI_PARMS ; read PARM05 : OK
(PID.TID 0000.0001)  PACKAGES_BOOT: opening data.pkg
(PID.TID 0000.0001)  OPEN_COPY_DATA_FILE: opening file data.pkg
(PID.TID 0000.0001) // =======================================================
(PID.TID 0000.0001) // Parameter file "data.pkg"
(PID.TID 0000.0001) // =======================================================
(PID.TID 0000.0001) ># Packages
(PID.TID 0000.0001) > &PACKAGES
(PID.TID 0000.0001) > useGMRedi=.TRUE.,
(PID.TID 0000.0001) > usePTRACERS=.TRUE.,
(PID.TID 0000.0001) > useGCHEM=.TRUE.,
(PID.TID 0000.0001) > useOffLine=.TRUE.,
(PID.TID 0000.0001) >#useMNC=.TRUE.,
(PID.TID 0000.0001) > &
(PID.TID 0000.0001) >
(PID.TID 0000.0001) 
(PID.TID 0000.0001)  PACKAGES_BOOT: finished reading data.pkg
(PID.TID 0000.0001)  GM_READPARMS: opening data.gmredi
(PID.TID 0000.0001)  OPEN_COPY_DATA_FILE: opening file data.gmredi
(PID.TID 0000.0001) // =======================================================
(PID.TID 0000.0001) // Parameter file "data.gmredi"
(PID.TID 0000.0001) // =======================================================
(PID.TID 0000.0001) ># from MOM
(PID.TID 0000.0001) ># GM_background_K: 	isopycnal diffusion coefficien
(PID.TID 0000.0001) ># GM_maxSlope:		max slope of isopycnals
(PID.TID 0000.0001) ># GM_Scrit:		transition for scaling diffusion coefficient
(PID.TID 0000.0001) ># GM_Sd:		half width scaling for diffusion coefficient
(PID.TID 0000.0001) ># real background diff:	horizontal diffusion
(PID.TID 0000.0001) >
(PID.TID 0000.0001) ># ifdef GM_VISBECK_VARIABLE_K, include following in GM_PARM01
(PID.TID 0000.0001) ># GM_Visbeck_alpha   = 0.,
(PID.TID 0000.0001) ># GM_Visbeck_length  = 2.e+5,
(PID.TID 0000.0001) ># GM_Visbeck_depth   = 1.e+3,
(PID.TID 0000.0001) ># GM_Visbeck_maxval_K= 2.5e+3,
(PID.TID 0000.0001) >
(PID.TID 0000.0001) > &GM_PARM01
(PID.TID 0000.0001) >  GM_background_K    = 1.e+3,
(PID.TID 0000.0001) >  GM_taper_scheme    = 'gkw91',
(PID.TID 0000.0001) >  GM_maxSlope        = 1.e-2,
(PID.TID 0000.0001) >  GM_Kmin_horiz      = 100.,
(PID.TID 0000.0001) >  GM_Scrit           = 4.e-3,
(PID.TID 0000.0001) >  GM_Sd              = 1.e-3,
(PID.TID 0000.0001) > &
(PID.TID 0000.0001) >
(PID.TID 0000.0001) >
(PID.TID 0000.0001) 
(PID.TID 0000.0001)  GM_READPARMS: finished reading data.gmredi
(PID.TID 0000.0001)  OFFLINE_READPARMS: opening data.off
(PID.TID 0000.0001)  OPEN_COPY_DATA_FILE: opening file data.off
(PID.TID 0000.0001) // =======================================================
(PID.TID 0000.0001) // Parameter file "data.off"
(PID.TID 0000.0001) // =======================================================
(PID.TID 0000.0001) > &OFFLINE_PARM01
(PID.TID 0000.0001) >  UvelFile= '../input/input_off/uVeltave',
(PID.TID 0000.0001) >  VvelFile= '../input/input_off/vVeltave',
(PID.TID 0000.0001) >  WvelFile= '../input/input_off/wVeltave',
(PID.TID 0000.0001) >  GMwxFile= '../input/input_off/GM_Kwx-T',
(PID.TID 0000.0001) >  GMwyFile= '../input/input_off/GM_Kwy-T',
(PID.TID 0000.0001) >  GMwzFile= '../input/input_off/GM_Kwz-T',
(PID.TID 0000.0001) >  ConvFile= '../input/input_off/Convtave',
(PID.TID 0000.0001) >  SaltFile= '../input/input_off/Stave',
(PID.TID 0000.0001) >  ThetFile= '../input/input_off/Ttave',
(PID.TID 0000.0001) ># SFluxFile='../input/input_off/sFluxtave',
(PID.TID 0000.0001) ># HFluxFile=' ',
(PID.TID 0000.0001) > &
(PID.TID 0000.0001) >
(PID.TID 0000.0001) > &OFFLINE_PARM02
(PID.TID 0000.0001) >  offlineIter0=4248000,
(PID.TID 0000.0001) >  deltaToffline=43200.,
(PID.TID 0000.0001) >  offlineForcingPeriod=2592000.,
(PID.TID 0000.0001) >  offlineForcingCycle=31104000.,
(PID.TID 0000.0001) > &
(PID.TID 0000.0001) >
(PID.TID 0000.0001) 
(PID.TID 0000.0001)  OFFLINE_READPARMS: finished reading data.off
(PID.TID 0000.0001)  PTRACERS_READPARMS: opening data.ptracers
(PID.TID 0000.0001)  OPEN_COPY_DATA_FILE: opening file data.ptracers
(PID.TID 0000.0001) // =======================================================
(PID.TID 0000.0001) // Parameter file "data.ptracers"
(PID.TID 0000.0001) // =======================================================
(PID.TID 0000.0001) > &PTRACERS_PARM01
(PID.TID 0000.0001) > PTRACERS_numInUse=2,
(PID.TID 0000.0001) > PTRACERS_Iter0= 4248000,
(PID.TID 0000.0001) >#
(PID.TID 0000.0001) ># The following option is now obsolete:
(PID.TID 0000.0001) >#  PTRACERS_write_mnc=.TRUE.,
(PID.TID 0000.0001) >#
(PID.TID 0000.0001) ># tracer 1 - dic
(PID.TID 0000.0001) > PTRACERS_names(1)='cfc11',
(PID.TID 0000.0001) > PTRACERS_long_names(1)='CFC11',
(PID.TID 0000.0001) > PTRACERS_units(1)='mol/m^3',
(PID.TID 0000.0001) > PTRACERS_advScheme(1)=77,
(PID.TID 0000.0001) > PTRACERS_diffKh(1)=0.E3,
(PID.TID 0000.0001) > PTRACERS_diffKr(1)=5.E-5,
(PID.TID 0000.0001) > PTRACERS_useGMRedi(1)=.TRUE. ,
(PID.TID 0000.0001) > PTRACERS_useKPP(1)=.FALSE. ,
(PID.TID 0000.0001) > PTRACERS_initialFile(1)=' ',
(PID.TID 0000.0001) ># tracer 2 - alk
(PID.TID 0000.0001) > PTRACERS_names(2)='cfc12',
(PID.TID 0000.0001) > PTRACERS_units(2)='mol/m^3',
(PID.TID 0000.0001) > PTRACERS_advScheme(2)=77,
(PID.TID 0000.0001) > PTRACERS_diffKh(2)=0.E3,
(PID.TID 0000.0001) > PTRACERS_diffKr(2)=5.E-5,
(PID.TID 0000.0001) > PTRACERS_useGMRedi(2)=.TRUE. ,
(PID.TID 0000.0001) > PTRACERS_useKPP(2)=.FALSE. ,
(PID.TID 0000.0001) > PTRACERS_initialFile(2)=' ',
(PID.TID 0000.0001) > &
(PID.TID 0000.0001) 
(PID.TID 0000.0001)  PTRACERS_READPARMS: finished reading data.ptracers
(PID.TID 0000.0001) // ===================================
(PID.TID 0000.0001) // PTRACERS parameters
(PID.TID 0000.0001) // ===================================
(PID.TID 0000.0001) PTRACERS_numInUse = /* number of tracers */
(PID.TID 0000.0001)                       2
(PID.TID 0000.0001)     ;
(PID.TID 0000.0001) PTRACERS_Iter0 = /* timestep number when tracers are initialized */
(PID.TID 0000.0001)                 4248000
(PID.TID 0000.0001)     ;
(PID.TID 0000.0001) PTRACERS_dumpFreq = /* Frequency^-1 for snapshot output (s) */
(PID.TID 0000.0001)                 3.110400000000000E+07
(PID.TID 0000.0001)     ;
(PID.TID 0000.0001) PTRACERS_taveFreq = /* Frequency^-1 for time-Aver. output (s) */
(PID.TID 0000.0001)                 3.110400000000000E+07
(PID.TID 0000.0001)     ;
(PID.TID 0000.0001) PTRACERS_useRecords = /* all tracers in 1 file */
(PID.TID 0000.0001)                   F
(PID.TID 0000.0001)     ;
(PID.TID 0000.0001) PTRACERS_timeave_mnc = /* use MNC for Tave output */
(PID.TID 0000.0001)                   F
(PID.TID 0000.0001)     ;
(PID.TID 0000.0001) PTRACERS_snapshot_mnc = /* use MNC for snapshot output */
(PID.TID 0000.0001)                   F
(PID.TID 0000.0001)     ;
(PID.TID 0000.0001) PTRACERS_pickup_write_mnc = /* use MNC for writing pickups */
(PID.TID 0000.0001)                   F
(PID.TID 0000.0001)     ;
(PID.TID 0000.0001) PTRACERS_pickup_read_mnc = /* use MNC for reading pickups */
(PID.TID 0000.0001)                   F
(PID.TID 0000.0001)     ;
(PID.TID 0000.0001)  -----------------------------------
(PID.TID 0000.0001)  tracer number :    1
(PID.TID 0000.0001) PTRACERS_advScheme = /* Advection Scheme */
(PID.TID 0000.0001)                      77
(PID.TID 0000.0001)     ;
(PID.TID 0000.0001) PTRACERS_ImplVertAdv = /* implicit vert. advection flag */
(PID.TID 0000.0001)                   F
(PID.TID 0000.0001)     ;
(PID.TID 0000.0001) PTRACERS_diffKh = /* Laplacian Diffusivity */
(PID.TID 0000.0001)                 0.000000000000000E+00
(PID.TID 0000.0001)     ;
(PID.TID 0000.0001) PTRACERS_diffK4 = /* Biharmonic Diffusivity */
(PID.TID 0000.0001)                 0.000000000000000E+00
(PID.TID 0000.0001)     ;
(PID.TID 0000.0001) PTRACERS_diffKrNr = /* Vertical Diffusivity */
(PID.TID 0000.0001)    15 @  5.000000000000000E-05              /* K =  1: 15 */
(PID.TID 0000.0001)     ;
(PID.TID 0000.0001) PTRACERS_useGMRedi = /* apply GM-Redi */
(PID.TID 0000.0001)                   T
(PID.TID 0000.0001)     ;
(PID.TID 0000.0001) PTRACERS_useKPP = /* apply KPP scheme */
(PID.TID 0000.0001)                   F
(PID.TID 0000.0001)     ;
(PID.TID 0000.0001) PTRACERS_ref = /* Reference vertical profile */
(PID.TID 0000.0001)    15 @  0.000000000000000E+00              /* K =  1: 15 */
(PID.TID 0000.0001)     ;
(PID.TID 0000.0001) PTRACERS_EvPrRn =/* tracer conc. in Evap. & Rain */
(PID.TID 0000.0001)                 1.234567000000000E+05
(PID.TID 0000.0001)     ;
(PID.TID 0000.0001)  -----------------------------------
(PID.TID 0000.0001)  tracer number :    2
(PID.TID 0000.0001) PTRACERS_advScheme = /* Advection Scheme */
(PID.TID 0000.0001)                      77
(PID.TID 0000.0001)     ;
(PID.TID 0000.0001) PTRACERS_ImplVertAdv = /* implicit vert. advection flag */
(PID.TID 0000.0001)                   F
(PID.TID 0000.0001)     ;
(PID.TID 0000.0001) PTRACERS_diffKh = /* Laplacian Diffusivity */
(PID.TID 0000.0001)                 0.000000000000000E+00
(PID.TID 0000.0001)     ;
(PID.TID 0000.0001) PTRACERS_diffK4 = /* Biharmonic Diffusivity */
(PID.TID 0000.0001)                 0.000000000000000E+00
(PID.TID 0000.0001)     ;
(PID.TID 0000.0001) PTRACERS_diffKrNr = /* Vertical Diffusivity */
(PID.TID 0000.0001)    15 @  5.000000000000000E-05              /* K =  1: 15 */
(PID.TID 0000.0001)     ;
(PID.TID 0000.0001) PTRACERS_useGMRedi = /* apply GM-Redi */
(PID.TID 0000.0001)                   T
(PID.TID 0000.0001)     ;
(PID.TID 0000.0001) PTRACERS_useKPP = /* apply KPP scheme */
(PID.TID 0000.0001)                   F
(PID.TID 0000.0001)     ;
(PID.TID 0000.0001) PTRACERS_ref = /* Reference vertical profile */
(PID.TID 0000.0001)    15 @  0.000000000000000E+00              /* K =  1: 15 */
(PID.TID 0000.0001)     ;
(PID.TID 0000.0001) PTRACERS_EvPrRn =/* tracer conc. in Evap. & Rain */
(PID.TID 0000.0001)                 1.234567000000000E+05
(PID.TID 0000.0001)     ;
(PID.TID 0000.0001)  -----------------------------------
(PID.TID 0000.0001)  GCHEM_READPARMS: opening data.gchem
(PID.TID 0000.0001)  OPEN_COPY_DATA_FILE: opening file data.gchem
(PID.TID 0000.0001) // =======================================================
(PID.TID 0000.0001) // Parameter file "data.gchem"
(PID.TID 0000.0001) // =======================================================
(PID.TID 0000.0001) > &GCHEM_PARM01
(PID.TID 0000.0001) >  iceFile='fice.bin',
(PID.TID 0000.0001) >  windFile='tren_speed.bin',
(PID.TID 0000.0001) >  nsubtime=1,
(PID.TID 0000.0001) > &
(PID.TID 0000.0001) 
(PID.TID 0000.0001)  GCHEM_READPARMS: finished reading data.gchem
(PID.TID 0000.0001) S/R SET_PARMS:  Off-Line => turn off Temp,Salt & Mom_Stepping flags
(PID.TID 0000.0001) SET_PARMS: done
(PID.TID 0000.0001) %MON XC_max                       =   3.5859375000000E+02
(PID.TID 0000.0001) %MON XC_min                       =   1.4062500000000E+00
(PID.TID 0000.0001) %MON XC_mean                      =   1.8000000000000E+02
(PID.TID 0000.0001) %MON XC_sd                        =   1.0391987692599E+02
(PID.TID 0000.0001) %MON XG_max                       =   3.5718750000000E+02
(PID.TID 0000.0001) %MON XG_min                       =   2.8125000000000E+00
(PID.TID 0000.0001) %MON XG_mean                      =   1.8000000000000E+02
(PID.TID 0000.0001) %MON XG_sd                        =   1.0310795313651E+02
(PID.TID 0000.0001) %MON DXC_max                      =   3.1259246843155E+05
(PID.TID 0000.0001) %MON DXC_min                      =   7.6737143816223E+03
(PID.TID 0000.0001) %MON DXC_mean                     =   1.9908248704234E+05
(PID.TID 0000.0001) %MON DXC_sd                       =   9.6190602240067E+04
(PID.TID 0000.0001) %MON DXF_max                      =   3.1259246843155E+05
(PID.TID 0000.0001) %MON DXF_min                      =   7.6737143816223E+03
(PID.TID 0000.0001) %MON DXF_mean                     =   1.9908248704234E+05
(PID.TID 0000.0001) %MON DXF_sd                       =   9.6190602240067E+04
(PID.TID 0000.0001) %MON DXG_max                      =   3.1268664380261E+05
(PID.TID 0000.0001) %MON DXG_min                      =   1.5342806404640E+04
(PID.TID 0000.0001) %MON DXG_mean                     =   2.0218161485138E+05
(PID.TID 0000.0001) %MON DXG_sd                       =   9.3728538420913E+04
(PID.TID 0000.0001) %MON DXV_max                      =   3.1268664380261E+05
(PID.TID 0000.0001) %MON DXV_min                      =   1.5342806404640E+04
(PID.TID 0000.0001) %MON DXV_mean                     =   2.0218161485138E+05
(PID.TID 0000.0001) %MON DXV_sd                       =   9.3728538420913E+04
(PID.TID 0000.0001) %MON YC_max                       =   8.8593750000000E+01
(PID.TID 0000.0001) %MON YC_min                       =  -8.8593750000000E+01
(PID.TID 0000.0001) %MON YC_mean                      =   0.0000000000000E+00
(PID.TID 0000.0001) %MON YC_sd                        =   5.1955180880375E+01
(PID.TID 0000.0001) %MON YG_max                       =   8.7187500000000E+01
(PID.TID 0000.0001) %MON YG_min                       =  -9.0000000000000E+01
(PID.TID 0000.0001) %MON YG_mean                      =  -1.4285714285714E+00
(PID.TID 0000.0001) %MON YG_sd                        =   5.2365595692639E+01
(PID.TID 0000.0001) %MON DYC_max                      =   3.1268664380261E+05
(PID.TID 0000.0001) %MON DYC_min                      =   3.1268664380261E+05
(PID.TID 0000.0001) %MON DYC_mean                     =   3.1268664380260E+05
(PID.TID 0000.0001) %MON DYC_sd                       =   4.3655745685101E-09
(PID.TID 0000.0001) %MON DYF_max                      =   3.1268664380261E+05
(PID.TID 0000.0001) %MON DYF_min                      =   3.1268664380261E+05
(PID.TID 0000.0001) %MON DYF_mean                     =   3.1268664380260E+05
(PID.TID 0000.0001) %MON DYF_sd                       =   4.3655745685101E-09
(PID.TID 0000.0001) %MON DYG_max                      =   3.1268664380261E+05
(PID.TID 0000.0001) %MON DYG_min                      =   3.1268664380261E+05
(PID.TID 0000.0001) %MON DYG_mean                     =   3.1268664380260E+05
(PID.TID 0000.0001) %MON DYG_sd                       =   4.3655745685101E-09
(PID.TID 0000.0001) %MON DYU_max                      =   3.1268664380261E+05
(PID.TID 0000.0001) %MON DYU_min                      =   3.1268664380261E+05
(PID.TID 0000.0001) %MON DYU_mean                     =   3.1268664380260E+05
(PID.TID 0000.0001) %MON DYU_sd                       =   4.3655745685101E-09
(PID.TID 0000.0001) %MON RA_max                       =   9.7733676797555E+10
(PID.TID 0000.0001) %MON RA_min                       =   2.3992270990190E+09
(PID.TID 0000.0001) %MON RA_mean                      =   6.2244185031956E+10
(PID.TID 0000.0001) %MON RA_sd                        =   3.0074496923945E+10
(PID.TID 0000.0001) %MON RAW_max                      =   9.7733676797555E+10
(PID.TID 0000.0001) %MON RAW_min                      =   2.3992270990190E+09
(PID.TID 0000.0001) %MON RAW_mean                     =   6.2244185031956E+10
(PID.TID 0000.0001) %MON RAW_sd                       =   3.0074496923945E+10
(PID.TID 0000.0001) %MON RAS_max                      =   9.7763121221868E+10
(PID.TID 0000.0001) %MON RAS_min                      =   4.7970089933466E+09
(PID.TID 0000.0001) %MON RAS_mean                     =   6.3213143616158E+10
(PID.TID 0000.0001) %MON RAS_sd                       =   2.9304719741649E+10
(PID.TID 0000.0001) %MON RAZ_max                      =   9.7763121221868E+10
(PID.TID 0000.0001) %MON RAZ_min                      =   4.7970089933466E+09
(PID.TID 0000.0001) %MON RAZ_mean                     =   6.3213143616158E+10
(PID.TID 0000.0001) %MON RAZ_sd                       =   2.9304719741649E+10
(PID.TID 0000.0001) %MON AngleCS_max                  =   1.0000000000000E+00
(PID.TID 0000.0001) %MON AngleCS_min                  =   1.0000000000000E+00
(PID.TID 0000.0001) %MON AngleCS_mean                 =   1.0000000000000E+00
(PID.TID 0000.0001) %MON AngleCS_sd                   =   0.0000000000000E+00
(PID.TID 0000.0001) %MON AngleSN_max                  =   0.0000000000000E+00
(PID.TID 0000.0001) %MON AngleSN_min                  =   0.0000000000000E+00
(PID.TID 0000.0001) %MON AngleSN_mean                 =   0.0000000000000E+00
(PID.TID 0000.0001) %MON AngleSN_sd                   =   0.0000000000000E+00
(PID.TID 0000.0001)  MDSREADFIELD: opening global file: depth_g77.bin
(PID.TID 0000.0001) // =======================================================
(PID.TID 0000.0001) // Field Bottom depths (ini_depths) at iteration          1
(PID.TID 0000.0001) // CMIN =         -5.200000000000000E+03
(PID.TID 0000.0001) // CMAX =         -5.000000000000000E+01
(PID.TID 0000.0001) // CINT =          1.907407407407407E+02
(PID.TID 0000.0001) // SYMBOLS (CMIN->CMAX): -abcdefghijklmnopqrstuvwxyz+
(PID.TID 0000.0001) //                  0.0: .
(PID.TID 0000.0001) // RANGE I (Lo:Hi:Step):(  -3: 132:   1)
(PID.TID 0000.0001) // RANGE J (Lo:Hi:Step):(  68:  -3:  -1)
(PID.TID 0000.0001) // RANGE K (Lo:Hi:Step):(   1:   1:   1)
(PID.TID 0000.0001) // =======================================================
(PID.TID 0000.0001) K =   1
(PID.TID 0000.0001) //                I=6       I=16      I=26      I=36      I=46      I=56      I=66      I=68      I=78      I=88      I=98      I=108     I=118     I=128
(PID.TID 0000.0001) // |--J--|***012345|789012345|789012345|789012345|789012345|789012345|789012345|781234567|901234567|901234567|901234567|901234567|901234567|901234567|9012
(PID.TID 0000.0001) //     68 ................................................................................................................................................
(PID.TID 0000.0001) //     67 ................................................................................................................................................
(PID.TID 0000.0001) //     66 ................................................................................................................................................
(PID.TID 0000.0001) //     65 ................................................................................................................................................
(PID.TID 0000.0001) //     64 ................................................................................................................................................
(PID.TID 0000.0001) //     63 ................................................................................................................................................
(PID.TID 0000.0001) //     62 ................................................................................................................................................
(PID.TID 0000.0001) //     61 +zvoovxyyy...+zzzzz+++++...............................................................................................................++zvoovxy
(PID.TID 0000.0001) //     60 +yvmmorw.....+++++zzzzz+.........................................................................................+....................zz+yvmmorw
(PID.TID 0000.0001) //     59 ojjjmmooty++zzzzzzzzzz+.........................................................................................+xwwwyz..............+ztojjjmmoo
(PID.TID 0000.0001) //     58 troommmorxzz+++zzzzz++.............................................................................................wttyz............+yvttroommmo
(PID.TID 0000.0001) //     57 vrmmmmmrv............................................................................................................xxz............xwvvvrmmmmmr
(PID.TID 0000.0001) //     56 vrjjrvyz..............................................................................................................zy........yyzxx..zvrjjrvyz
(PID.TID 0000.0001) //     55 ywrrvy..............................................................++......++.......................................+yvv.....vrrtxyyzyyywrrvy..
(PID.TID 0000.0001) //     54 xzz++............................................................vtt++++.vtt++++......................................yommv..vmmrvtoortwxzz++...
(PID.TID 0000.0001) //     53 y...++.................................................++++...wvtjggmrz+tjggmrz+++....xojmt...........................+tmjjmmmmrtoootwyxy...++..
(PID.TID 0000.0001) //     52 ....++................................................+zyyy...rrojjrmjjtojjrmjjt+.yvrjjjjjjr............................wtjjjjmrommmtvtt....++..
(PID.TID 0000.0001) //     51 .......................................................zvvx..ggjjmotvoomjmotvoomjdddddgggjjjrz..........................+yrjjjjjmmjjmmry........
(PID.TID 0000.0001) //     50 y+.....................................................+vvxyd--ggdd-----gdd-------ddddddgggjmox..........................+yrogggjmmggggty+......
(PID.TID 0000.0001) //     49 gj+....................................................+vvmd----g-------g--------------ddddgjomx..........................+wrgggjmojggddgj+.....
(PID.TID 0000.0001) //     48 vxx.....................................................vd------g-------g--------------ddgggjmmv.....................+xrrxwgdggjjoomjggjvxx.....
(PID.TID 0000.0001) //     47 v......................................................m------d-gd------gd-------------ddddggjjt...................ywgd--dggdddgrrojgddgv.......
(PID.TID 0000.0001) //     46 w.....................................................xd-----gd-jdgd----jdgd-----------dd---dddm..................rgddg-----dggmttvogdjjw.......
(PID.TID 0000.0001) //     45 m.....................................................m-----gd--gjjjjj--gjjjjj-------------ddddgt................tgddddg-ggggjoooojddgomm.......
(PID.TID 0000.0001) //     44 .................................................+.wttg----gj----jgggg---jgggg---dd-------ddddggjw..............zj--ggdd--dgjomjjoj-djmm........
(PID.TID 0000.0001) //     43 ................................................+zxmjrg----------dddggdd-dddggdd--d----ddddggddggmx............+wg--dd----djmmgddjd-djow........
(PID.TID 0000.0001) //     42 ...............................................+zyomjjrmd-----------djjj----djjjjdgd----dddddddgggj............wwd-------ddjmgd---d-gmx.........
(PID.TID 0000.0001) //     41 .........................tt.....................mgjjggrgddjddd----d---gg--d---ggtjjggd----ddddggggjm++.......vwwwv-------dgmjd------go..........
(PID.TID 0000.0001) //     40 .........................roo.................yytdd--gdmogggjjgd--jomd-gj-jomd-gjgdgovd-------ddggggjmm.......xxx.xvj-----dgmgd--ddddgt..........
(PID.TID 0000.0001) //     39 ........................xjjjr.....vrr.......vovtd---ddgogjgddggggmjjjmmmgmjjjmmmg--gmd--------dgggjjmmt......oortw.tttg-ddgmgd--ddgjjr..........
(PID.TID 0000.0001) //     38 .......................rmjggjt...rmmo+.....xrov.m--dddgogddddgggddgddddjddgddddjg----------dd-ddgggjmjmmov.....ytmmggttdddjjjdd---dtjr..........
(PID.TID 0000.0001) //     37 ....................zvvtjggggt..+jjjrx+....vmmy.t--ddgmmg--ddjmmg-d-d--dg-d-d--ddd-------dddddddggggjjmmjjjo...toovttwxjdddjjgd----ddo..........
(PID.TID 0000.0001) //     36 ......................tjmgdddrw.+jjjrxz....vty...--gmommmgdddmgor------gr------ggmgg--d---dddddddgggjmmjjggjm+.ww......rjdddgjgd----gm..........
(PID.TID 0000.0001) //     35 ......................dgjmgggmrv+jgjoxz....ww....--mjjorrommjgdjmj---d--mj---d--dgmgdddd-dddddddggggggjjjjjjjtx.........zyggddgjjgggmdjx........
(PID.TID 0000.0001) //     34 rrrrrtz..............rdddjmjgmrmgggjjw........zyxojjggmgggjmjjdgdjd--d--djd--d---djodddddddddddddgggggjjjjjmtrmr..........ymgggjmjggjddgrrrrrtz.
(PID.TID 0000.0001) //     33 dddddgr.............tddggggmjjogdddjjj.........zxxojgjmgggjoojdddmg--dd-dmg--dd--ddmjdgdddddgddddgggggjjjmmtrmmy...........+jgggjmjjdddddddddgr.
(PID.TID 0000.0001) //     32 gdddggo............rgddgddgjjjjddddgddm.........xx..+ttttrrrojggggo--dd-ggo--dd----dgddddddddddddddgggjjjjjtror..............oogdddgggjjgdddggo.
(PID.TID 0000.0001) //     31 jgddgdgy..........vgddgwrjgjmrg--ddgdddr........xxz.....y.xvtomjjdd---ddjdd---dd-jdddddddddddddddddggjjjjgggjjj................tg----dgmjgddgdgy
(PID.TID 0000.0001) //     30 jgdgd-dm..........vggjjovmgjmwd---dgddddmy...+xxxxy++....oo.vtjjgddg--ddgddg--dddjgddddddgjdddddddggjjjgggggggg................zd---dgjmjgdgd-dm
(PID.TID 0000.0001) //     29 jggd--dgy.........wjmmmjmyomjm---ddgdddddgjmooxxxx++++.+..vtvxrrgddjjjjggddjjjjggjmg-dgddgrgddgggggjmmjggggggddr...............yd---dgjmjggd--dg
(PID.TID 0000.0001) //     36 ......................tjmgdddrw.+jjjrxz....vty...--gmommmgdddmgor------gr------ggmgg--d---dddddddgggjmmjjggjm+.ww......rjdddgjgd----gm..........
(PID.TID 0000.0001) //     35 ......................dgjmgggmrv+jgjoxz....ww....--mjjorrommjgdjmj---d--mj---d--dgmgdddd-dddddddggggggjjjjjjjtx.........zyggddgjjgggmdjx........
(PID.TID 0000.0001) //     34 rrrrrtz..............rdddjmjgmrmgggjjw........zyxojjggmgggjmjjdgdjd--d--djd--d---djodddddddddddddgggggjjjjjmtrmr..........ymgggjmjggjddgrrrrrtz.
(PID.TID 0000.0001) //     33 dddddgr.............tddggggmjjogdddjjj.........zxxojgjmgggjoojdddmg--dd-dmg--dd--ddmjdgdddddgddddgggggjjjmmtrmmy...........+jgggjmjjdddddddddgr.
(PID.TID 0000.0001) //     32 gdddggo............rgddgddgjjjjddddgddm.........xx..+ttttrrrojggggo--dd-ggo--dd----dgddddddddddddddgggjjjjjtror..............oogdddgggjjgdddggo.
(PID.TID 0000.0001) //     31 jgddgdgy..........vgddgwrjgjmrg--ddgdddr........xxz.....y.xvtomjjdd---ddjdd---dd-jdddddddddddddddddggjjjjgggjjj................tg----dgmjgddgdgy
(PID.TID 0000.0001) //     30 jgdgd-dm..........vggjjovmgjmwd---dgddddmy...+xxxxy++....oo.vtjjgddg--ddgddg--dddjgddddddgjdddddddggjjjgggggggg................zd---dgjmjgdgd-dm
(PID.TID 0000.0001) //     29 jggd--dgy.........wjmmmjmyomjm---ddgdddddgjmooxxxx++++.+..vtvxrrgddjjjjggddjjjjggjmg-dgddgrgddgggggjmmjggggggddr...............yd---dgjmjggd--dg
(PID.TID 0000.0001) //     28 jjdd---gy.........wtr.gggymmjg--ddgj-djdggggggmxx+.....+ommromrvorrrtmmgorrrtmmgdgm--dgddgggggggggjjmjgggggggddd..............+gg---dgmmjjdd---g
(PID.TID 0000.0001) //     27 jgdd---g..........ww..gggymmjgdd-djj-dd---dgjjw+........vtmmmjjxmmotvrrgmmotvrrgddd-ggmtvroggggggjjmjjggjjggddddo.............ygd---dgjmjgdd---g
(PID.TID 0000.0001) //     26 jgdd---o..........rx..ddoromjgdd--gj-d-----jtw+..........ytrrotwrmrzvrjgrmrzvrjgdddgggojmromjgggjjjmjggggggddddjjg............yjd---dgjmjgdd---o
(PID.TID 0000.0001) //     25 jdd--dmo.........roz.rdomgjmmgddddgjd---dggox.............ztxxzyrmmmtv--rmmmtv----dgggggggmmjggggjjjjgggggggggmjddj...........rjgd--ddgmjdd--dmo
(PID.TID 0000.0001) //     24 gd---gogt.......zmjx.jdgdgggmjggddgjd--ddgmr..............zrrtmwoggjto--oggjto----ddddgggggjmjjjjjmjjgggjjjjjmmgdjj..........vjgd----djmgd---gog
(PID.TID 0000.0001) //     23 jgdddojdo.......wjgowj---dgjjmjggggjdddmdddr..............yjrtmrmjgjtmd-mjgjtmd------ddjmjgggggjjjmmmmmmmjjjjjjjggo........+omgddddddgjmjgdddojd
(PID.TID 0000.0001) //     22 jgddmgddj+.....yrddoojddgjggggmjgggooommgddd+.............yjrtororjmt-d-orjmt-d-------dddggdgggggjjmmmjjjjjjjgggggw........rjjmoojdddgjmjgddmgdd
(PID.TID 0000.0001) //     21 ggjjjdddgv.....mrddrogdjjgdddgjmjjmrgjmmgddgt....++.......rgrvovtrmom---trmom------------ddddgggggjmmjjjggjjjggggg+.......wjgggmmjdgggjjggjjjddd
(PID.TID 0000.0001) //     20 ggjgd---dgy.xjgjjddjjjjjgddddggjjjjgggdddddgjttjjjjt......gggrvtt.xrj--dt.xrj--d----------ddggjjggjjjjjjjjjjgggggj.......zjdddddgggggjjjggjgd---
(PID.TID 0000.0001) //     19 jjgd----gggjgjggddgjjjjgd-dddggjjjgggggddddddd------gv...jdddjtww..xjd-dw..xjd-dj--d-------dddddgggjjjgggjjjgggggj......zj-----ddggggjjjjjgd----
(PID.TID 0000.0001) //     18 jjgggdddjg--gjggdgjjjjjgd--dggjjjjjjjjggggddddd------dj..jddddjvy..tjjggy..tjjggdg-----------ddddggjjjggggjjjjgggv......r-------dddgjjjjjjgggddd
(PID.TID 0000.0001) //     17 gggjgdgdddddd--djjjjjjjgddddggjjjjjjjjjjggggdddddddddddvyjddddgv..wwwwrj..wwwwrjd-d-----------ddggjjjjjggggggjjjjz...++t--------ddddgjjjgggjgdgd
(PID.TID 0000.0001) //     16 jjgggdjgdddd--djjjjjjjjgddgjjjjjjjjjjjjjjjgggggdddddggdjrjddddj..vtrjgd-.vtrjgd----dddd-----ddddggjjjjjggdddggjjj....++r----------ddgjjjjjgggdjg
(PID.TID 0000.0001) //     15 jjjjjjjjgdddddgjggggggggdgjx.yjjjggggjjjjjjjjjgggggjjjgjjjdddgjjjjjjjd--jjjjjd------ddddddddddggjjjjjjggddddddggj....++xtjddggdddgjdgggjjjjjjjjj
(PID.TID 0000.0001) //     14 jjjjjjjjjjjjjgdddgjjjgggddgjjjjjjgdgggggggjjgggggggjjjjjggddjjjjjjjd----jjjd------dddddggjggggggjjjjjgggdddddddgjj..+jjjjjjjjjjjjgjjddggjjjjjjjj
(PID.TID 0000.0001) //     13 jjjjjjjgddgggg---gjggggddddjjjjjjgdddgggggggdddddddggjjjjgggjgjjjg------jg------ddddgjjjjjjjjjjjjjjjgggdgd----ddgjjjjjjjjjjjjjjjjggggddgjjjjjjjg
(PID.TID 0000.0001) //     12 gjggdd----dd--------------djjjjjjjdddddgdddddddddddddgjjjjjjjgd-----dddd----dddddddgjjjjjjjjjgggggdddddddddd---dddgjjjjgggjjjjjjjjvggggggjggdd--
(PID.TID 0000.0001) //     11 ------------------------dddddjjjrtjddddddddddddddddddgggjjjjjjjgddddddggddddddgggggjjjjjjgggdggddd--------------ddgjjjjjrrrvttrrjjjgggdd--------
(PID.TID 0000.0001) //     10 ----ggd--------d--ddgdddddgggggjjjjjjjjjjjjjjjjgggjjjjggggjjjjjjjjjjjjjjjjjjjjjjjjjjjjjgggddddd-----------dddddddggjrv..zvjjjggdddddd-------ggd-
(PID.TID 0000.0001) //      9 --ddjjggjjdddddjjggjtw..wrrrrrrrvvvw+........zxx++...zxvttrrjrjjjjjjjjjjjjjjjjjjjjgggggggggddddddddddddddddgdddggjt+...yxrjgdddddddgd-----ddjjgg
(PID.TID 0000.0001) //      8 jjjjjjjtvrjjjjv..............++.............................+trrjjjjjjggjjjjjjggggggdddddddddggjjjjggggddggjjjjjtz....+xxrjgggddddddddddjjjjjjjt
(PID.TID 0000.0001) //      7 .................................................................vttvtjg.vttvtjggggddgggddgggjjjjrttrrvxyzzyyyyy+......xxvtrjjggggggjjv+........
(PID.TID 0000.0001) //      6 ...............................................................+zyyyywjjzyyyywjjjjjgggjjrtwx+.........................+yxxyyyxwttvwy............
(PID.TID 0000.0001) //      5 ................................................................yyyyyyyyyyyyyyyyyyyyz.................................zzz+..+yy+................
(PID.TID 0000.0001) //      4 ................................................................................................................................................
(PID.TID 0000.0001) //      3 ................................................................................................................................................
(PID.TID 0000.0001) //      2 ................................................................................................................................................
(PID.TID 0000.0001) //      1 ................................................................................................................................................
(PID.TID 0000.0001) //      0 ................................................................................................................................................
(PID.TID 0000.0001) //     -1 ................................................................................................................................................
(PID.TID 0000.0001) //     -2 ................................................................................................................................................
(PID.TID 0000.0001) //     -3 +zvoovxyyy...+zzzzz+++++...............................................................................................................++zvoovxy
(PID.TID 0000.0001) // =======================================================
(PID.TID 0000.0001) // END OF FIELD                                          =
(PID.TID 0000.0001) // =======================================================
(PID.TID 0000.0001) 
(PID.TID 0000.0001) // =======================================================
(PID.TID 0000.0001) // Field Model R_low (ini_masks_etc) at iteration          1
(PID.TID 0000.0001) // CMIN =         -5.200000000000000E+03
(PID.TID 0000.0001) // CMAX =         -5.000000000000000E+01
(PID.TID 0000.0001) // CINT =          1.907407407407407E+02
(PID.TID 0000.0001) // SYMBOLS (CMIN->CMAX): -abcdefghijklmnopqrstuvwxyz+
(PID.TID 0000.0001) //                  0.0: .
(PID.TID 0000.0001) // RANGE I (Lo:Hi:Step):(  -3: 132:   1)
(PID.TID 0000.0001) // RANGE J (Lo:Hi:Step):(  68:  -3:  -1)
(PID.TID 0000.0001) // RANGE K (Lo:Hi:Step):(   1:   1:   1)
(PID.TID 0000.0001) // =======================================================
(PID.TID 0000.0001) K =   1
(PID.TID 0000.0001) //                I=6       I=16      I=26      I=36      I=46      I=56      I=66      I=68      I=78      I=88      I=98      I=108     I=118     I=128
(PID.TID 0000.0001) // |--J--|***012345|789012345|789012345|789012345|789012345|789012345|789012345|781234567|901234567|901234567|901234567|901234567|901234567|901234567|9012
(PID.TID 0000.0001) //     68 ................................................................................................................................................
(PID.TID 0000.0001) //     67 ................................................................................................................................................
(PID.TID 0000.0001) //     66 ................................................................................................................................................
(PID.TID 0000.0001) //     65 ................................................................................................................................................
(PID.TID 0000.0001) //     64 ................................................................................................................................................
(PID.TID 0000.0001) //     63 ................................................................................................................................................
(PID.TID 0000.0001) //     62 ................................................................................................................................................
(PID.TID 0000.0001) //     61 +zvoovxyyy...+zzzzz+++++...............................................................................................................++zvoovxy
(PID.TID 0000.0001) //     60 +yvmmorw.....+++++zzzzz+.........................................................................................+....................zz+yvmmorw
(PID.TID 0000.0001) //     59 ojjjmmooty++zzzzzzzzzz+.........................................................................................+xwwwyz..............+ztojjjmmoo
(PID.TID 0000.0001) //     58 troommmorxzz+++zzzzz++.............................................................................................wttyz............+yvttroommmo
(PID.TID 0000.0001) //     57 vrmmmmmrv............................................................................................................xxz............xwvvvrmmmmmr
(PID.TID 0000.0001) //     56 vrjjrvyz..............................................................................................................zy........yyzxx..zvrjjrvyz
(PID.TID 0000.0001) //     55 ywrrvy..............................................................++......++.......................................+yvv.....vrrtxyyzyyywrrvy..
(PID.TID 0000.0001) //     54 xzz++............................................................vtt++++.vtt++++......................................yommv..vmmrvtoortwxzz++...
(PID.TID 0000.0001) //     53 y...++.................................................++++...wvtjggmrz+tjggmrz+++....xojmt...........................+tmjjmmmmrtoootwyxy...++..
(PID.TID 0000.0001) //     52 ....++................................................+zyyy...rrojjrmjjtojjrmjjt+.yvrjjjjjjr............................wtjjjjmrommmtvtt....++..
(PID.TID 0000.0001) //     51 .......................................................zvvx..ggjjmotvoomjmotvoomjdddddgggjjjrz..........................+yrjjjjjmmjjmmry........
(PID.TID 0000.0001) //     50 y+.....................................................+vvxyd--ggdd-----gdd-------ddddddgggjmox..........................+yrogggjmmggggty+......
(PID.TID 0000.0001) //     49 gj+....................................................+vvmd----g-------g--------------ddddgjomx..........................+wrgggjmojggddgj+.....
(PID.TID 0000.0001) //     48 vxx.....................................................vd------g-------g--------------ddgggjmmv.....................+xrrxwgdggjjoomjggjvxx.....
(PID.TID 0000.0001) //     47 v......................................................m------d-gd------gd-------------ddddggjjt...................ywgd--dggdddgrrojgddgv.......
(PID.TID 0000.0001) //     46 w.....................................................xd-----gd-jdgd----jdgd-----------dd---dddm..................rgddg-----dggmttvogdjjw.......
(PID.TID 0000.0001) //     45 m.....................................................m-----gd--gjjjjj--gjjjjj-------------ddddgt................tgddddg-ggggjoooojddgomm.......
(PID.TID 0000.0001) //     44 .................................................+.wttg----gj----jgggg---jgggg---dd-------ddddggjw..............zj--ggdd--dgjomjjoj-djmm........
(PID.TID 0000.0001) //     43 ................................................+zxmjrg----------dddggdd-dddggdd--d----ddddggddggmx............+wg--dd----djmmgddjd-djow........
(PID.TID 0000.0001) //     42 ...............................................+zyomjjrmd-----------djjj----djjjjdgd----dddddddgggj............wwd-------ddjmgd---d-gmx.........
(PID.TID 0000.0001) //     41 .........................tt.....................mgjjggrgddjddd----d---gg--d---ggtjjggd----ddddggggjm++.......vwwwv-------dgmjd------go..........
(PID.TID 0000.0001) //     40 .........................roo.................yytdd--gdmogggjjgd--jomd-gj-jomd-gjgdgovd-------ddggggjmm.......xxx.xvj-----dgmgd--ddddgt..........
(PID.TID 0000.0001) //     39 ........................xjjjr.....vrr.......vovtd---ddgogjgddggggmjjjmmmgmjjjmmmg--gmd--------dgggjjmmt......oortw.tttg-ddgmgd--ddgjjr..........
(PID.TID 0000.0001) //     38 .......................rmjggjt...rmmo+.....xrov.m--dddgogddddgggddgddddjddgddddjg----------dd-ddgggjmjmmov.....ytmmggttdddjjjdd---dtjr..........
(PID.TID 0000.0001) //     37 ....................zvvtjggggt..+jjjrx+....vmmy.t--ddgmmg--ddjmmg-d-d--dg-d-d--ddd-------dddddddggggjjmmjjjo...toovttwxjdddjjgd----ddo..........
(PID.TID 0000.0001) //     36 ......................tjmgdddrw.+jjjrxz....vty...--gmommmgdddmgor------gr------ggmgg--d---dddddddgggjmmjjggjm+.ww......rjdddgjgd----gm..........
(PID.TID 0000.0001) //     35 ......................dgjmgggmrv+jgjoxz....ww....--mjjorrommjgdjmj---d--mj---d--dgmgdddd-dddddddggggggjjjjjjjtx.........zyggddgjjgggmdjx........
(PID.TID 0000.0001) //     34 rrrrrtz..............rdddjmjgmrmgggjjw........zyxojjggmgggjmjjdgdjd--d--djd--d---djodddddddddddddgggggjjjjjmtrmr..........ymgggjmjggjddgrrrrrtz.
(PID.TID 0000.0001) //     33 dddddgr.............tddggggmjjogdddjjj.........zxxojgjmgggjoojdddmg--dd-dmg--dd--ddmjdgdddddgddddgggggjjjmmtrmmy...........+jgggjmjjdddddddddgr.
(PID.TID 0000.0001) //     32 gdddggo............rgddgddgjjjjddddgddm.........xx..+ttttrrrojggggo--dd-ggo--dd----dgddddddddddddddgggjjjjjtror..............oogdddgggjjgdddggo.
(PID.TID 0000.0001) //     31 jgddgdgy..........vgddgwrjgjmrg--ddgdddr........xxz.....y.xvtomjjdd---ddjdd---dd-jdddddddddddddddddggjjjjgggjjj................tg----dgmjgddgdgy
(PID.TID 0000.0001) //     30 jgdgd-dm..........vggjjovmgjmwd---dgddddmy...+xxxxy++....oo.vtjjgddg--ddgddg--dddjgddddddgjdddddddggjjjgggggggg................zd---dgjmjgdgd-dm
(PID.TID 0000.0001) //     29 jggd--dgy.........wjmmmjmyomjm---ddgdddddgjmooxxxx++++.+..vtvxrrgddjjjjggddjjjjggjmg-dgddgrgddgggggjmmjggggggddr...............yd---dgjmjggd--dg
(PID.TID 0000.0001) //     36 ......................tjmgdddrw.+jjjrxz....vty...--gmommmgdddmgor------gr------ggmgg--d---dddddddgggjmmjjggjm+.ww......rjdddgjgd----gm..........
(PID.TID 0000.0001) //     35 ......................dgjmgggmrv+jgjoxz....ww....--mjjorrommjgdjmj---d--mj---d--dgmgdddd-dddddddggggggjjjjjjjtx.........zyggddgjjgggmdjx........
(PID.TID 0000.0001) //     34 rrrrrtz..............rdddjmjgmrmgggjjw........zyxojjggmgggjmjjdgdjd--d--djd--d---djodddddddddddddgggggjjjjjmtrmr..........ymgggjmjggjddgrrrrrtz.
(PID.TID 0000.0001) //     33 dddddgr.............tddggggmjjogdddjjj.........zxxojgjmgggjoojdddmg--dd-dmg--dd--ddmjdgdddddgddddgggggjjjmmtrmmy...........+jgggjmjjdddddddddgr.
(PID.TID 0000.0001) //     32 gdddggo............rgddgddgjjjjddddgddm.........xx..+ttttrrrojggggo--dd-ggo--dd----dgddddddddddddddgggjjjjjtror..............oogdddgggjjgdddggo.
(PID.TID 0000.0001) //     31 jgddgdgy..........vgddgwrjgjmrg--ddgdddr........xxz.....y.xvtomjjdd---ddjdd---dd-jdddddddddddddddddggjjjjgggjjj................tg----dgmjgddgdgy
(PID.TID 0000.0001) //     30 jgdgd-dm..........vggjjovmgjmwd---dgddddmy...+xxxxy++....oo.vtjjgddg--ddgddg--dddjgddddddgjdddddddggjjjgggggggg................zd---dgjmjgdgd-dm
(PID.TID 0000.0001) //     29 jggd--dgy.........wjmmmjmyomjm---ddgdddddgjmooxxxx++++.+..vtvxrrgddjjjjggddjjjjggjmg-dgddgrgddgggggjmmjggggggddr...............yd---dgjmjggd--dg
(PID.TID 0000.0001) //     28 jjdd---gy.........wtr.gggymmjg--ddgj-djdggggggmxx+.....+ommromrvorrrtmmgorrrtmmgdgm--dgddgggggggggjjmjgggggggddd..............+gg---dgmmjjdd---g
(PID.TID 0000.0001) //     27 jgdd---g..........ww..gggymmjgdd-djj-dd---dgjjw+........vtmmmjjxmmotvrrgmmotvrrgddd-ggmtvroggggggjjmjjggjjggddddo.............ygd---dgjmjgdd---g
(PID.TID 0000.0001) //     26 jgdd---o..........rx..ddoromjgdd--gj-d-----jtw+..........ytrrotwrmrzvrjgrmrzvrjgdddgggojmromjgggjjjmjggggggddddjjg............yjd---dgjmjgdd---o
(PID.TID 0000.0001) //     25 jdd--dmo.........roz.rdomgjmmgddddgjd---dggox.............ztxxzyrmmmtv--rmmmtv----dgggggggmmjggggjjjjgggggggggmjddj...........rjgd--ddgmjdd--dmo
(PID.TID 0000.0001) //     24 gd---gogt.......zmjx.jdgdgggmjggddgjd--ddgmr..............zrrtmwoggjto--oggjto----ddddgggggjmjjjjjmjjgggjjjjjmmgdjj..........vjgd----djmgd---gog
(PID.TID 0000.0001) //     23 jgdddojdo.......wjgowj---dgjjmjggggjdddmdddr..............yjrtmrmjgjtmd-mjgjtmd------ddjmjgggggjjjmmmmmmmjjjjjjjggo........+omgddddddgjmjgdddojd
(PID.TID 0000.0001) //     22 jgddmgddj+.....yrddoojddgjggggmjgggooommgddd+.............yjrtororjmt-d-orjmt-d-------dddggdgggggjjmmmjjjjjjjgggggw........rjjmoojdddgjmjgddmgdd
(PID.TID 0000.0001) //     21 ggjjjdddgv.....mrddrogdjjgdddgjmjjmrgjmmgddgt....++.......rgrvovtrmom---trmom------------ddddgggggjmmjjjggjjjggggg+.......wjgggmmjdgggjjggjjjddd
(PID.TID 0000.0001) //     20 ggjgd---dgy.xjgjjddjjjjjgddddggjjjjgggdddddgjttjjjjt......gggrvtt.xrj--dt.xrj--d----------ddggjjggjjjjjjjjjjgggggj.......zjdddddgggggjjjggjgd---
(PID.TID 0000.0001) //     19 jjgd----gggjgjggddgjjjjgd-dddggjjjgggggddddddd------gv...jdddjtww..xjd-dw..xjd-dj--d-------dddddgggjjjgggjjjgggggj......zj-----ddggggjjjjjgd----
(PID.TID 0000.0001) //     18 jjgggdddjg--gjggdgjjjjjgd--dggjjjjjjjjggggddddd------dj..jddddjvy..tjjggy..tjjggdg-----------ddddggjjjggggjjjjgggv......r-------dddgjjjjjjgggddd
(PID.TID 0000.0001) //     17 gggjgdgdddddd--djjjjjjjgddddggjjjjjjjjjjggggdddddddddddvyjddddgv..wwwwrj..wwwwrjd-d-----------ddggjjjjjggggggjjjjz...++t--------ddddgjjjgggjgdgd
(PID.TID 0000.0001) //     16 jjgggdjgdddd--djjjjjjjjgddgjjjjjjjjjjjjjjjgggggdddddggdjrjddddj..vtrjgd-.vtrjgd----dddd-----ddddggjjjjjggdddggjjj....++r----------ddgjjjjjgggdjg
(PID.TID 0000.0001) //     15 jjjjjjjjgdddddgjggggggggdgjx.yjjjggggjjjjjjjjjgggggjjjgjjjdddgjjjjjjjd--jjjjjd------ddddddddddggjjjjjjggddddddggj....++xtjddggdddgjdgggjjjjjjjjj
(PID.TID 0000.0001) //     14 jjjjjjjjjjjjjgdddgjjjgggddgjjjjjjgdgggggggjjgggggggjjjjjggddjjjjjjjd----jjjd------dddddggjggggggjjjjjgggdddddddgjj..+jjjjjjjjjjjjgjjddggjjjjjjjj
(PID.TID 0000.0001) //     13 jjjjjjjgddgggg---gjggggddddjjjjjjgdddgggggggdddddddggjjjjgggjgjjjg------jg------ddddgjjjjjjjjjjjjjjjgggdgd----ddgjjjjjjjjjjjjjjjjggggddgjjjjjjjg
(PID.TID 0000.0001) //     12 gjggdd----dd--------------djjjjjjjdddddgdddddddddddddgjjjjjjjgd-----dddd----dddddddgjjjjjjjjjgggggdddddddddd---dddgjjjjgggjjjjjjjjvggggggjggdd--
(PID.TID 0000.0001) //     11 ------------------------dddddjjjrtjddddddddddddddddddgggjjjjjjjgddddddggddddddgggggjjjjjjgggdggddd--------------ddgjjjjjrrrvttrrjjjgggdd--------
(PID.TID 0000.0001) //     10 ----ggd--------d--ddgdddddgggggjjjjjjjjjjjjjjjjgggjjjjggggjjjjjjjjjjjjjjjjjjjjjjjjjjjjjgggddddd-----------dddddddggjrv..zvjjjggdddddd-------ggd-
(PID.TID 0000.0001) //      9 --ddjjggjjdddddjjggjtw..wrrrrrrrvvvw+........zxx++...zxvttrrjrjjjjjjjjjjjjjjjjjjjjgggggggggddddddddddddddddgdddggjt+...yxrjgdddddddgd-----ddjjgg
(PID.TID 0000.0001) //      8 jjjjjjjtvrjjjjv..............++.............................+trrjjjjjjggjjjjjjggggggdddddddddggjjjjggggddggjjjjjtz....+xxrjgggddddddddddjjjjjjjt
(PID.TID 0000.0001) //      7 .................................................................vttvtjg.vttvtjggggddgggddgggjjjjrttrrvxyzzyyyyy+......xxvtrjjggggggjjv+........
(PID.TID 0000.0001) //      6 ...............................................................+zyyyywjjzyyyywjjjjjgggjjrtwx+.........................+yxxyyyxwttvwy............
(PID.TID 0000.0001) //      5 ................................................................yyyyyyyyyyyyyyyyyyyyz.................................zzz+..+yy+................
(PID.TID 0000.0001) //      4 ................................................................................................................................................
(PID.TID 0000.0001) //      3 ................................................................................................................................................
(PID.TID 0000.0001) //      2 ................................................................................................................................................
(PID.TID 0000.0001) //      1 ................................................................................................................................................
(PID.TID 0000.0001) //      0 ................................................................................................................................................
(PID.TID 0000.0001) //     -1 ................................................................................................................................................
(PID.TID 0000.0001) //     -2 ................................................................................................................................................
(PID.TID 0000.0001) //     -3 ................................................................................................................................................
(PID.TID 0000.0001) // =======================================================
(PID.TID 0000.0001) // END OF FIELD                                          =
(PID.TID 0000.0001) // =======================================================
(PID.TID 0000.0001) 
(PID.TID 0000.0001) // =======================================================
(PID.TID 0000.0001) // Field Model Ro_surf (ini_masks_etc) at iteration          1
(PID.TID 0000.0001) // CMIN =          1.000000000000000E+32
(PID.TID 0000.0001) // CMAX =         -1.000000000000000E+32
(PID.TID 0000.0001) // CINT =          0.000000000000000E+00
(PID.TID 0000.0001) // SYMBOLS (CMIN->CMAX): -abcdefghijklmnopqrstuvwxyz+
(PID.TID 0000.0001) //                  0.0: .
(PID.TID 0000.0001) // RANGE I (Lo:Hi:Step):(  -3: 132:   1)
(PID.TID 0000.0001) // RANGE J (Lo:Hi:Step):(  68:  -3:  -1)
(PID.TID 0000.0001) // RANGE K (Lo:Hi:Step):(   1:   1:   1)
(PID.TID 0000.0001) // =======================================================
(PID.TID 0000.0001) // =======================================================
(PID.TID 0000.0001) // END OF FIELD                                          =
(PID.TID 0000.0001) // =======================================================
(PID.TID 0000.0001) 
(PID.TID 0000.0001) // =======================================================
(PID.TID 0000.0001) // Field hFacC at iteration          1
(PID.TID 0000.0001) // CMIN =          1.000000000000000E+00
(PID.TID 0000.0001) // CMAX =          1.000000000000000E+00
(PID.TID 0000.0001) // CINT =          0.000000000000000E+00
(PID.TID 0000.0001) // SYMBOLS (CMIN->CMAX): -abcdefghijklmnopqrstuvwxyz+
(PID.TID 0000.0001) //                  0.0: .
(PID.TID 0000.0001) // RANGE I (Lo:Hi:Step):(  -3: 132:   1)
(PID.TID 0000.0001) // RANGE J (Lo:Hi:Step):(  68:  -3:  -1)
(PID.TID 0000.0001) // RANGE K (Lo:Hi:Step):(   1:   1:   1)
(PID.TID 0000.0001) // =======================================================
(PID.TID 0000.0001) // =======================================================
(PID.TID 0000.0001) // END OF FIELD                                          =
(PID.TID 0000.0001) // =======================================================
(PID.TID 0000.0001) 
(PID.TID 0000.0001) // =======================================================
(PID.TID 0000.0001) // Field hFacW at iteration          1
(PID.TID 0000.0001) // CMIN =          1.000000000000000E+00
(PID.TID 0000.0001) // CMAX =          1.000000000000000E+00
(PID.TID 0000.0001) // CINT =          0.000000000000000E+00
(PID.TID 0000.0001) // SYMBOLS (CMIN->CMAX): -abcdefghijklmnopqrstuvwxyz+
(PID.TID 0000.0001) //                  0.0: .
(PID.TID 0000.0001) // RANGE I (Lo:Hi:Step):(  -3: 132:   1)
(PID.TID 0000.0001) // RANGE J (Lo:Hi:Step):(  68:  -3:  -1)
(PID.TID 0000.0001) // RANGE K (Lo:Hi:Step):(   1:   1:   1)
(PID.TID 0000.0001) // =======================================================
(PID.TID 0000.0001) // =======================================================
(PID.TID 0000.0001) // END OF FIELD                                          =
(PID.TID 0000.0001) // =======================================================
(PID.TID 0000.0001) 
(PID.TID 0000.0001) // =======================================================
(PID.TID 0000.0001) // Field hFacS at iteration          1
(PID.TID 0000.0001) // CMIN =          1.000000000000000E+00
(PID.TID 0000.0001) // CMAX =          1.000000000000000E+00
(PID.TID 0000.0001) // CINT =          0.000000000000000E+00
(PID.TID 0000.0001) // SYMBOLS (CMIN->CMAX): -abcdefghijklmnopqrstuvwxyz+
(PID.TID 0000.0001) //                  0.0: .
(PID.TID 0000.0001) // RANGE I (Lo:Hi:Step):(  -3: 132:   1)
(PID.TID 0000.0001) // RANGE J (Lo:Hi:Step):(  68:  -3:  -1)
(PID.TID 0000.0001) // RANGE K (Lo:Hi:Step):(   1:   1:   1)
(PID.TID 0000.0001) // =======================================================
(PID.TID 0000.0001) // =======================================================
(PID.TID 0000.0001) // END OF FIELD                                          =
(PID.TID 0000.0001) // =======================================================
(PID.TID 0000.0001) 
(PID.TID 0000.0001) 
(PID.TID 0000.0001) // ===================================
(PID.TID 0000.0001) // GAD parameters :
(PID.TID 0000.0001) // ===================================
(PID.TID 0000.0001) tempAdvScheme =   /* Temp. Horiz.Advection scheme selector */
(PID.TID 0000.0001)                       2
(PID.TID 0000.0001)     ;
(PID.TID 0000.0001) tempVertAdvScheme =   /* Temp. Vert. Advection scheme selector */
(PID.TID 0000.0001)                       2
(PID.TID 0000.0001)     ;
(PID.TID 0000.0001) tempMultiDimAdvec =   /* use Muti-Dim Advec method for Temp */
(PID.TID 0000.0001)                   F
(PID.TID 0000.0001)     ;
(PID.TID 0000.0001) AdamsBashforthGt =   /* apply Adams-Bashforth extrapolation on Gt */
(PID.TID 0000.0001)                   F
(PID.TID 0000.0001)     ;
(PID.TID 0000.0001) AdamsBashforth_T =   /* apply Adams-Bashforth extrapolation on Temp */
(PID.TID 0000.0001)                   F
(PID.TID 0000.0001)     ;
(PID.TID 0000.0001) saltAdvScheme =   /* Salt. Horiz.advection scheme selector */
(PID.TID 0000.0001)                       2
(PID.TID 0000.0001)     ;
(PID.TID 0000.0001) saltVertAdvScheme =   /* Salt. Vert. Advection scheme selector */
(PID.TID 0000.0001)                       2
(PID.TID 0000.0001)     ;
(PID.TID 0000.0001) saltMultiDimAdvec =   /* use Muti-Dim Advec method for Salt */
(PID.TID 0000.0001)                   F
(PID.TID 0000.0001)     ;
(PID.TID 0000.0001) AdamsBashforthGs =   /* apply Adams-Bashforth extrapolation on Gs */
(PID.TID 0000.0001)                   F
(PID.TID 0000.0001)     ;
(PID.TID 0000.0001) AdamsBashforth_S =   /* apply Adams-Bashforth extrapolation on Salt */
(PID.TID 0000.0001)                   F
(PID.TID 0000.0001)     ;
(PID.TID 0000.0001) // ===================================
 QQ start cfc params
 QQ read cfc atmos data
(PID.TID 0000.0001) S/R CFC_ATMOS: reading CFC atmospheric data
(PID.TID 0000.0001) year,acfc11_n,acfc12_n,acfc11_s,acfc12_s =    0.00    0.00    0.00    0.00
(PID.TID 0000.0001) year,acfc11_n,acfc12_n,acfc11_s,acfc12_s =    0.00    0.01    0.00    0.01
(PID.TID 0000.0001) year,acfc11_n,acfc12_n,acfc11_s,acfc12_s =    0.00    0.02    0.00    0.01
(PID.TID 0000.0001) year,acfc11_n,acfc12_n,acfc11_s,acfc12_s =    0.00    0.03    0.00    0.02
(PID.TID 0000.0001) year,acfc11_n,acfc12_n,acfc11_s,acfc12_s =    0.00    0.04    0.00    0.03
(PID.TID 0000.0001) year,acfc11_n,acfc12_n,acfc11_s,acfc12_s =    0.00    0.07    0.00    0.04
(PID.TID 0000.0001) year,acfc11_n,acfc12_n,acfc11_s,acfc12_s =    0.00    0.11    0.00    0.07
(PID.TID 0000.0001) year,acfc11_n,acfc12_n,acfc11_s,acfc12_s =    0.00    0.17    0.00    0.11
(PID.TID 0000.0001) year,acfc11_n,acfc12_n,acfc11_s,acfc12_s =    0.01    0.25    0.00    0.17
(PID.TID 0000.0001) year,acfc11_n,acfc12_n,acfc11_s,acfc12_s =    0.01    0.37    0.01    0.25
(PID.TID 0000.0001) year,acfc11_n,acfc12_n,acfc11_s,acfc12_s =    0.02    0.53    0.01    0.36
(PID.TID 0000.0001) year,acfc11_n,acfc12_n,acfc11_s,acfc12_s =    0.02    0.72    0.02    0.51
(PID.TID 0000.0001) year,acfc11_n,acfc12_n,acfc11_s,acfc12_s =    0.03    0.94    0.02    0.69
(PID.TID 0000.0001) year,acfc11_n,acfc12_n,acfc11_s,acfc12_s =    0.04    1.25    0.03    0.91
(PID.TID 0000.0001) year,acfc11_n,acfc12_n,acfc11_s,acfc12_s =    0.05    1.65    0.04    1.21
(PID.TID 0000.0001) year,acfc11_n,acfc12_n,acfc11_s,acfc12_s =    0.08    2.33    0.05    1.64
(PID.TID 0000.0001) year,acfc11_n,acfc12_n,acfc11_s,acfc12_s =    0.14    3.42    0.08    2.33
(PID.TID 0000.0001) year,acfc11_n,acfc12_n,acfc11_s,acfc12_s =    0.24    4.73    0.14    3.32
(PID.TID 0000.0001) year,acfc11_n,acfc12_n,acfc11_s,acfc12_s =    0.42    6.10    0.25    4.48
(PID.TID 0000.0001) year,acfc11_n,acfc12_n,acfc11_s,acfc12_s =    0.67    7.58    0.42    5.77
(PID.TID 0000.0001) year,acfc11_n,acfc12_n,acfc11_s,acfc12_s =    1.02    9.23    0.66    7.19
(PID.TID 0000.0001) year,acfc11_n,acfc12_n,acfc11_s,acfc12_s =    1.53   10.94    1.01    8.72
(PID.TID 0000.0001) year,acfc11_n,acfc12_n,acfc11_s,acfc12_s =    2.21   12.82    1.49   10.37
(PID.TID 0000.0001) year,acfc11_n,acfc12_n,acfc11_s,acfc12_s =    3.07   14.97    2.13   12.20
(PID.TID 0000.0001) year,acfc11_n,acfc12_n,acfc11_s,acfc12_s =    4.11   17.40    2.93   14.25
(PID.TID 0000.0001) year,acfc11_n,acfc12_n,acfc11_s,acfc12_s =    5.39   20.22    3.92   16.59
(PID.TID 0000.0001) year,acfc11_n,acfc12_n,acfc11_s,acfc12_s =    6.84   23.45    5.11   19.28
(PID.TID 0000.0001) year,acfc11_n,acfc12_n,acfc11_s,acfc12_s =    8.19   26.86    6.39   22.28
(PID.TID 0000.0001) year,acfc11_n,acfc12_n,acfc11_s,acfc12_s =    9.47   30.58    7.63   25.52
(PID.TID 0000.0001) year,acfc11_n,acfc12_n,acfc11_s,acfc12_s =   11.13   35.03    8.96   29.18
(PID.TID 0000.0001) year,acfc11_n,acfc12_n,acfc11_s,acfc12_s =   13.38   40.12   10.63   33.42
(PID.TID 0000.0001) year,acfc11_n,acfc12_n,acfc11_s,acfc12_s =   16.23   45.89   12.78   38.25
(PID.TID 0000.0001) year,acfc11_n,acfc12_n,acfc11_s,acfc12_s =   19.72   52.66   15.47   43.80
(PID.TID 0000.0001) year,acfc11_n,acfc12_n,acfc11_s,acfc12_s =   23.87   60.57   18.75   50.28
(PID.TID 0000.0001) year,acfc11_n,acfc12_n,acfc11_s,acfc12_s =   28.57   69.53   22.61   57.76
(PID.TID 0000.0001) year,acfc11_n,acfc12_n,acfc11_s,acfc12_s =   33.78   79.46   26.99   66.21
(PID.TID 0000.0001) year,acfc11_n,acfc12_n,acfc11_s,acfc12_s =   39.63   90.60   31.91   75.67
(PID.TID 0000.0001) year,acfc11_n,acfc12_n,acfc11_s,acfc12_s =   46.27  103.16   37.46   86.31
(PID.TID 0000.0001) year,acfc11_n,acfc12_n,acfc11_s,acfc12_s =   53.96  117.17   43.80   98.25
(PID.TID 0000.0001) year,acfc11_n,acfc12_n,acfc11_s,acfc12_s =   62.75  132.52   51.07  111.52
(PID.TID 0000.0001) year,acfc11_n,acfc12_n,acfc11_s,acfc12_s =   72.36  149.00   59.27  126.02
(PID.TID 0000.0001) year,acfc11_n,acfc12_n,acfc11_s,acfc12_s =   83.04  166.85   68.34  141.70
(PID.TID 0000.0001) year,acfc11_n,acfc12_n,acfc11_s,acfc12_s =   95.27  186.59   78.54  158.82
(PID.TID 0000.0001) year,acfc11_n,acfc12_n,acfc11_s,acfc12_s =  108.81  208.14   90.04  177.62
(PID.TID 0000.0001) year,acfc11_n,acfc12_n,acfc11_s,acfc12_s =  121.86  229.37  102.29  197.54
(PID.TID 0000.0001) year,acfc11_n,acfc12_n,acfc11_s,acfc12_s =  134.47  249.51  114.40  217.31
(PID.TID 0000.0001) year,acfc11_n,acfc12_n,acfc11_s,acfc12_s =  146.47  268.67  126.28  236.49
(PID.TID 0000.0001) year,acfc11_n,acfc12_n,acfc11_s,acfc12_s =  157.18  286.35  137.45  254.72
(PID.TID 0000.0001) year,acfc11_n,acfc12_n,acfc11_s,acfc12_s =  166.67  303.74  147.60  272.00
(PID.TID 0000.0001) year,acfc11_n,acfc12_n,acfc11_s,acfc12_s =  175.11  320.96  158.08  290.34
(PID.TID 0000.0001) year,acfc11_n,acfc12_n,acfc11_s,acfc12_s =  182.81  337.33  166.54  306.90
(PID.TID 0000.0001) year,acfc11_n,acfc12_n,acfc11_s,acfc12_s =  189.88  352.01  174.69  323.74
(PID.TID 0000.0001) year,acfc11_n,acfc12_n,acfc11_s,acfc12_s =  197.72  367.69  183.03  341.15
(PID.TID 0000.0001) year,acfc11_n,acfc12_n,acfc11_s,acfc12_s =  206.34  383.86  190.95  357.80
(PID.TID 0000.0001) year,acfc11_n,acfc12_n,acfc11_s,acfc12_s =  216.12  401.25  200.50  376.45
(PID.TID 0000.0001) year,acfc11_n,acfc12_n,acfc11_s,acfc12_s =  227.48  420.96  209.82  394.00
(PID.TID 0000.0001) year,acfc11_n,acfc12_n,acfc11_s,acfc12_s =  239.67  441.49  220.60  412.82
(PID.TID 0000.0001) year,acfc11_n,acfc12_n,acfc11_s,acfc12_s =  251.05  463.22  231.46  433.46
(PID.TID 0000.0001) year,acfc11_n,acfc12_n,acfc11_s,acfc12_s =  257.28  481.80  240.38  452.97
(PID.TID 0000.0001) year,acfc11_n,acfc12_n,acfc11_s,acfc12_s =  263.65  493.96  249.23  470.55
(PID.TID 0000.0001) year,acfc11_n,acfc12_n,acfc11_s,acfc12_s =  266.33  504.64  254.53  484.07
(PID.TID 0000.0001) year,acfc11_n,acfc12_n,acfc11_s,acfc12_s =  266.00  512.87  258.80  495.65
(PID.TID 0000.0001) year,acfc11_n,acfc12_n,acfc11_s,acfc12_s =  267.58  520.12  260.56  504.49
(PID.TID 0000.0001) year,acfc11_n,acfc12_n,acfc11_s,acfc12_s =  267.24  526.58  261.73  512.31
(PID.TID 0000.0001) year,acfc11_n,acfc12_n,acfc11_s,acfc12_s =  266.38  531.59  261.29  518.39
(PID.TID 0000.0001) year,acfc11_n,acfc12_n,acfc11_s,acfc12_s =  265.25  534.81  261.08  523.50
(PID.TID 0000.0001) year,acfc11_n,acfc12_n,acfc11_s,acfc12_s =  263.84  537.67  260.16  528.18
(PID.TID 0000.0001) year,acfc11_n,acfc12_n,acfc11_s,acfc12_s =  263.84  537.67  260.16  528.18
(PID.TID 0000.0001) GMREDI_CHECK: #define GMREDI
(PID.TID 0000.0001) GM_AdvForm =  /* if FALSE => use SkewFlux Form */
(PID.TID 0000.0001)                   F
(PID.TID 0000.0001)     ;
(PID.TID 0000.0001) GM_AdvSeparate = /* Calc Bolus & Euler Adv. separately */
(PID.TID 0000.0001)                   F
(PID.TID 0000.0001)     ;
(PID.TID 0000.0001) GM_ExtraDiag =  /* Tensor Extra Diag (line 1&2) non 0 */
(PID.TID 0000.0001)                   F
(PID.TID 0000.0001)     ;
(PID.TID 0000.0001) GM_isopycK =   /* Background Isopyc. Diffusivity ( m^2/s ) */
(PID.TID 0000.0001)                 1.000000000000000E+03
(PID.TID 0000.0001)     ;
(PID.TID 0000.0001)  GM_skewflx*K =   /* Background GM_SkewFlx Diffusivity ( m^2/s ) */
(PID.TID 0000.0001)                 1.000000000000000E+03
(PID.TID 0000.0001)     ;
(PID.TID 0000.0001)  GM_advec*K =   /* Backg. GM-Advec(=Bolus) Diffusivity ( m^2/s ) */
(PID.TID 0000.0001)                 0.000000000000000E+00
(PID.TID 0000.0001)     ;
(PID.TID 0000.0001)  GM_Visbeck_alpha =   /* Visbeck alpha coeff. ( ) */
(PID.TID 0000.0001)                 0.000000000000000E+00
(PID.TID 0000.0001)     ;
(PID.TID 0000.0001)  Tapering/Cliping : gkw91
(PID.TID 0000.0001)  GM_Small_Number =  /* epsilon used in slope calc */
(PID.TID 0000.0001)                 1.000000000000000E-12
(PID.TID 0000.0001)     ;
(PID.TID 0000.0001)  GM_slopeSqCutoff =  /* Slope^2 cut-off value */
(PID.TID 0000.0001)                 1.000000000000000E+48
(PID.TID 0000.0001)     ;
(PID.TID 0000.0001) GCHEM_CHECK: #define ALLOW_GCHEM
(PID.TID 0000.0001) %MON fCori_max                    =   1.4579854531444E-04
(PID.TID 0000.0001) %MON fCori_min                    =  -1.4579854531444E-04
(PID.TID 0000.0001) %MON fCori_mean                   =   2.3039296165317E-19
(PID.TID 0000.0001) %MON fCori_sd                     =   1.0312619976228E-04
(PID.TID 0000.0001) %MON fCoriG_max                   =   1.4566679669714E-04
(PID.TID 0000.0001) %MON fCoriG_min                   =  -1.4584247033981E-04
(PID.TID 0000.0001) %MON fCoriG_mean                  =  -2.3149598466634E-06
(PID.TID 0000.0001) %MON fCoriG_sd                    =   1.0391565699982E-04
(PID.TID 0000.0001) %MON fCoriCos_max                 =   1.4579854531444E-04
(PID.TID 0000.0001) %MON fCoriCos_min                 =   3.5791533929553E-06
(PID.TID 0000.0001) %MON fCoriCos_mean                =   9.2855522572229E-05
(PID.TID 0000.0001) %MON fCoriCos_sd                  =   4.4864964117307E-05
(PID.TID 0000.0001) INI_CG2D: CG2D normalisation factor =  6.8918025187312258E-05
(PID.TID 0000.0001) 
(PID.TID 0000.0001) CONFIG_CHECK: OK
(PID.TID 0000.0001) // =======================================================
(PID.TID 0000.0001) // Model configuration
(PID.TID 0000.0001) // =======================================================
(PID.TID 0000.0001) //
(PID.TID 0000.0001) // "Physical" paramters ( PARM01 in namelist )
(PID.TID 0000.0001) //
(PID.TID 0000.0001) buoyancyRelation = OCEANIC
(PID.TID 0000.0001) fluidIsAir  =  /* fluid major constituent is Air */
(PID.TID 0000.0001)                   F
(PID.TID 0000.0001)     ;
(PID.TID 0000.0001) fluidIsWater=  /* fuild major constituent is Water */
(PID.TID 0000.0001)                   T
(PID.TID 0000.0001)     ;
(PID.TID 0000.0001) usingPCoords =  /* use p (or p*) vertical coordinate */
(PID.TID 0000.0001)                   F
(PID.TID 0000.0001)     ;
(PID.TID 0000.0001) usingZCoords =  /* use z (or z*) vertical coordinate */
(PID.TID 0000.0001)                   T
(PID.TID 0000.0001)     ;
(PID.TID 0000.0001) tRef =   /* Reference temperature profile ( oC or K ) */
(PID.TID 0000.0001)    15 @  2.000000000000000E+01              /* K =  1: 15 */
(PID.TID 0000.0001)     ;
(PID.TID 0000.0001) sRef =   /* Reference salinity profile ( psu ) */
(PID.TID 0000.0001)    15 @  3.500000000000000E+01              /* K =  1: 15 */
(PID.TID 0000.0001)     ;
(PID.TID 0000.0001) viscAh =   /* Lateral eddy viscosity ( m^2/s ) */
(PID.TID 0000.0001)                 5.000000000000000E+05
(PID.TID 0000.0001)     ;
(PID.TID 0000.0001) viscAhMax =   /* Maximum lateral eddy viscosity ( m^2/s ) */
(PID.TID 0000.0001)                 1.000000000000000E+21
(PID.TID 0000.0001)     ;
(PID.TID 0000.0001) viscAhGrid =   /* Grid dependent lateral eddy viscosity ( non-dim. ) */
(PID.TID 0000.0001)                 0.000000000000000E+00
(PID.TID 0000.0001)     ;
(PID.TID 0000.0001) useFullLeith =   /* Use Full Form of Leith Viscosity on/off flag*/
(PID.TID 0000.0001)                   F
(PID.TID 0000.0001)     ;
(PID.TID 0000.0001) useStrainTensionVisc =   /* Use StrainTension Form of Viscous Operator on/off flag*/
(PID.TID 0000.0001)                   F
(PID.TID 0000.0001)     ;
(PID.TID 0000.0001) useAreaViscLength =   /* Use area for visc length instead of geom. mean*/
(PID.TID 0000.0001)                   F
(PID.TID 0000.0001)     ;
(PID.TID 0000.0001) viscC2leith = /* Leith harmonic visc. factor (on grad(vort),non-dim.) */
(PID.TID 0000.0001)                 0.000000000000000E+00
(PID.TID 0000.0001)     ;
(PID.TID 0000.0001) viscC2leithD = /* Leith harmonic viscosity factor (on grad(div),non-dim.) */
(PID.TID 0000.0001)                 0.000000000000000E+00
(PID.TID 0000.0001)     ;
(PID.TID 0000.0001) viscC2smag =   /* Smagorinsky harmonic viscosity factor (non-dim.) */
(PID.TID 0000.0001)                 0.000000000000000E+00
(PID.TID 0000.0001)     ;
(PID.TID 0000.0001) viscA4 =   /* Lateral biharmonic viscosity ( m^4/s ) */
(PID.TID 0000.0001)                 0.000000000000000E+00
(PID.TID 0000.0001)     ;
(PID.TID 0000.0001) viscA4Max =   /* Maximum biharmonic viscosity ( m^2/s ) */
(PID.TID 0000.0001)                 1.000000000000000E+21
(PID.TID 0000.0001)     ;
(PID.TID 0000.0001) viscA4Grid =   /* Grid dependent biharmonic viscosity ( non-dim. ) */
(PID.TID 0000.0001)                 0.000000000000000E+00
(PID.TID 0000.0001)     ;
(PID.TID 0000.0001) viscC4leith = /* Leith biharm viscosity factor (on grad(vort), non-dim.) */
(PID.TID 0000.0001)                 0.000000000000000E+00
(PID.TID 0000.0001)     ;
(PID.TID 0000.0001) viscC4leithD = /* Leith biharm viscosity factor (on grad(div), non-dim.) */
(PID.TID 0000.0001)                 0.000000000000000E+00
(PID.TID 0000.0001)     ;
(PID.TID 0000.0001) viscC4Smag = /* Smagorinsky biharm viscosity factor (non-dim) */
(PID.TID 0000.0001)                 0.000000000000000E+00
(PID.TID 0000.0001)     ;
(PID.TID 0000.0001) no_slip_sides =  /* Viscous BCs: No-slip sides */
(PID.TID 0000.0001)                   T
(PID.TID 0000.0001)     ;
(PID.TID 0000.0001) sideDragFactor = /* side-drag scaling factor (non-dim) */
(PID.TID 0000.0001)                 2.000000000000000E+00
(PID.TID 0000.0001)     ;
(PID.TID 0000.0001) viscAr =   /* Vertical eddy viscosity ( units of r^2/s ) */
(PID.TID 0000.0001)                 1.000000000000000E-03
(PID.TID 0000.0001)     ;
(PID.TID 0000.0001) no_slip_bottom =  /* Viscous BCs: No-slip bottom */
(PID.TID 0000.0001)                   T
(PID.TID 0000.0001)     ;
(PID.TID 0000.0001) bottomDragLinear = /* linear bottom-drag coefficient ( 1/s ) */
(PID.TID 0000.0001)                 0.000000000000000E+00
(PID.TID 0000.0001)     ;
(PID.TID 0000.0001) bottomDragQuadratic = /* quadratic bottom-drag coeff. ( 1/m ) */
(PID.TID 0000.0001)                 0.000000000000000E+00
(PID.TID 0000.0001)     ;
(PID.TID 0000.0001) diffKhT =   /* Laplacian diffusion of heat laterally ( m^2/s ) */
(PID.TID 0000.0001)                 0.000000000000000E+00
(PID.TID 0000.0001)     ;
(PID.TID 0000.0001) diffK4T =   /* Bihaarmonic diffusion of heat laterally ( m^4/s ) */
(PID.TID 0000.0001)                 0.000000000000000E+00
(PID.TID 0000.0001)     ;
(PID.TID 0000.0001) diffKhS =   /* Laplacian diffusion of salt laterally ( m^2/s ) */
(PID.TID 0000.0001)                 0.000000000000000E+00
(PID.TID 0000.0001)     ;
(PID.TID 0000.0001) diffK4S =   /* Bihaarmonic diffusion of salt laterally ( m^4/s ) */
(PID.TID 0000.0001)                 0.000000000000000E+00
(PID.TID 0000.0001)     ;
(PID.TID 0000.0001) diffKrNrT = /* vertical profile of vertical diffusion of Temp ( m^2/s )*/
(PID.TID 0000.0001)    15 @  5.000000000000000E-05              /* K =  1: 15 */
(PID.TID 0000.0001)     ;
(PID.TID 0000.0001) diffKrNrS = /* vertical profile of vertical diffusion of Salt ( m^2/s )*/
(PID.TID 0000.0001)    15 @  5.000000000000000E-05              /* K =  1: 15 */
(PID.TID 0000.0001)     ;
(PID.TID 0000.0001) diffKrBL79surf =   /* Surface diffusion for Bryan and Lewis 1979 ( m^2/s ) */
(PID.TID 0000.0001)                 0.000000000000000E+00
(PID.TID 0000.0001)     ;
(PID.TID 0000.0001) diffKrBL79deep =   /* Deep diffusion for Bryan and Lewis 1979 ( m^2/s ) */
(PID.TID 0000.0001)                 0.000000000000000E+00
(PID.TID 0000.0001)     ;
(PID.TID 0000.0001) diffKrBL79scl =   /* Depth scale for Bryan and Lewis 1979 ( m ) */
(PID.TID 0000.0001)                 2.000000000000000E+02
(PID.TID 0000.0001)     ;
(PID.TID 0000.0001) diffKrBL79Ho =   /* Turning depth for Bryan and Lewis 1979 ( m ) */
(PID.TID 0000.0001)                -2.000000000000000E+03
(PID.TID 0000.0001)     ;
(PID.TID 0000.0001) Equation of State : eosType = POLY3  ;
(PID.TID 0000.0001) tAlpha =   /* Linear EOS thermal expansion coefficient ( 1/oC ) */
(PID.TID 0000.0001)                 2.000000000000000E-04
(PID.TID 0000.0001)     ;
[...]
(PID.TID 0000.0001) // =======================================================
(PID.TID 0000.0001) // End MONITOR dynamic field statistics
(PID.TID 0000.0001) // =======================================================
(PID.TID 0000.0001) // =======================================================
(PID.TID 0000.0001) // Begin MONITOR ptracer field statistics
(PID.TID 0000.0001) // =======================================================
(PID.TID 0000.0001) %MON trcstat_ptracer01_max        =   3.5786520731773E-10
(PID.TID 0000.0001) %MON trcstat_ptracer01_min        =  -3.6078345837471E-12
(PID.TID 0000.0001) %MON trcstat_ptracer01_mean       =   1.0769604199605E-11
(PID.TID 0000.0001) %MON trcstat_ptracer01_sd         =   3.0719703831316E-11
(PID.TID 0000.0001) %MON trcstat_ptracer01_del2       =   1.2511356589565E-12
(PID.TID 0000.0001) %MON trcstat_ptracer02_max        =   3.0013314426624E-10
(PID.TID 0000.0001) %MON trcstat_ptracer02_min        =  -2.3535540534795E-12
(PID.TID 0000.0001) %MON trcstat_ptracer02_mean       =   1.1014100560316E-11
(PID.TID 0000.0001) %MON trcstat_ptracer02_sd         =   2.8644629548206E-11
(PID.TID 0000.0001) %MON trcstat_ptracer02_del2       =   1.0836398062480E-12
(PID.TID 0000.0001) // =======================================================
(PID.TID 0000.0001) // End MONITOR ptracers field statistics
(PID.TID 0000.0001) // =======================================================
S/R EXTERNAL_FIELDS_LOAD: Reading new data:   12    1   4269600  1.844467200000E+11
(PID.TID 0000.0001)  MDSREADFIELD: opening global file: tren_taux.bin
(PID.TID 0000.0001)  MDSREADFIELD: opening global file: tren_taux.bin
(PID.TID 0000.0001)  MDSREADFIELD: opening global file: tren_tauy.bin
(PID.TID 0000.0001)  MDSREADFIELD: opening global file: tren_tauy.bin
(PID.TID 0000.0001)  MDSREADFIELD: opening global file: shi_qnet.bin
(PID.TID 0000.0001)  MDSREADFIELD: opening global file: shi_qnet.bin
(PID.TID 0000.0001)  MDSREADFIELD: opening global file: shi_empmr_year.bin
(PID.TID 0000.0001)  MDSREADFIELD: opening global file: shi_empmr_year.bin
(PID.TID 0000.0001)  MDSREADFIELD: opening global file: lev_monthly_temp.bin
(PID.TID 0000.0001)  MDSREADFIELD: opening global file: lev_monthly_temp.bin
(PID.TID 0000.0001)  MDSREADFIELD: opening global file: lev_monthly_salt.bin
(PID.TID 0000.0001)  MDSREADFIELD: opening global file: lev_monthly_salt.bin
 S/R OFFLINE_FIELDS_LOAD: Reading new data  1.8444672E+11 4269600 4269600 12 1
(PID.TID 0000.0001)  MDSREADFIELD: opening global file: ../input/input_off/uVeltave.0004248720.data
(PID.TID 0000.0001)  MDSREADFIELD: opening global file: ../input/input_off/uVeltave.0004248060.data
(PID.TID 0000.0001)  MDSREADFIELD: opening global file: ../input/input_off/vVeltave.0004248720.data
(PID.TID 0000.0001)  MDSREADFIELD: opening global file: ../input/input_off/vVeltave.0004248060.data
(PID.TID 0000.0001)  MDSREADFIELD: opening global file: ../input/input_off/wVeltave.0004248720.data
(PID.TID 0000.0001)  MDSREADFIELD: opening global file: ../input/input_off/wVeltave.0004248060.data
(PID.TID 0000.0001)  MDSREADFIELD: opening global file: ../input/input_off/Ttave.0004248720.data
(PID.TID 0000.0001)  MDSREADFIELD: opening global file: ../input/input_off/Ttave.0004248060.data
(PID.TID 0000.0001)  MDSREADFIELD: opening global file: ../input/input_off/Stave.0004248720.data
(PID.TID 0000.0001)  MDSREADFIELD: opening global file: ../input/input_off/Stave.0004248060.data
(PID.TID 0000.0001)  MDSREADFIELD: opening global file: ../input/input_off/Convtave.0004248720.data
(PID.TID 0000.0001)  MDSREADFIELD: opening global file: ../input/input_off/Convtave.0004248060.data
(PID.TID 0000.0001)  MDSREADFIELD: opening global file: ../input/input_off/GM_Kwx-T.0004248720.data
(PID.TID 0000.0001)  MDSREADFIELD: opening global file: ../input/input_off/GM_Kwx-T.0004248060.data
(PID.TID 0000.0001)  MDSREADFIELD: opening global file: ../input/input_off/GM_Kwy-T.0004248720.data
(PID.TID 0000.0001)  MDSREADFIELD: opening global file: ../input/input_off/GM_Kwy-T.0004248060.data
(PID.TID 0000.0001)  MDSREADFIELD: opening global file: ../input/input_off/GM_Kwz-T.0004248720.data
(PID.TID 0000.0001)  MDSREADFIELD: opening global file: ../input/input_off/GM_Kwz-T.0004248060.data
 S/R EXTERNAL_FIELDS_LOAD: Reading new cfc data  1.8444672E+11 4269600
(PID.TID 0000.0001)  MDSREADFIELD: opening global file: tren_speed.bin
(PID.TID 0000.0001)  MDSREADFIELD: opening global file: tren_speed.bin
(PID.TID 0000.0001)  MDSREADFIELD: opening global file: fice.bin
(PID.TID 0000.0001)  MDSREADFIELD: opening global file: fice.bin
 YEAR,ACFC12north,ACFC12south  30.  43.005  35.835
 YEAR,ACFC12north,ACFC12south  30.  43.005  35.835
 YEAR,ACFC12north,ACFC12south  30.  43.005  35.835
 YEAR,ACFC12north,ACFC12south  30.  43.005  35.835
(PID.TID 0000.0001) // =======================================================
(PID.TID 0000.0001) // Begin MONITOR ptracer field statistics
(PID.TID 0000.0001) // =======================================================
(PID.TID 0000.0001) %MON trcstat_ptracer01_max        =   3.6016341520660E-10
(PID.TID 0000.0001) %MON trcstat_ptracer01_min        =  -3.6083580399249E-12
(PID.TID 0000.0001) %MON trcstat_ptracer01_mean       =   1.0782430121517E-11
(PID.TID 0000.0001) %MON trcstat_ptracer01_sd         =   3.0762979748261E-11
(PID.TID 0000.0001) %MON trcstat_ptracer01_del2       =   1.2724774123580E-12
(PID.TID 0000.0001) %MON trcstat_ptracer02_max        =   3.0028850397663E-10
(PID.TID 0000.0001) %MON trcstat_ptracer02_min        =  -2.3537560743611E-12
(PID.TID 0000.0001) %MON trcstat_ptracer02_mean       =   1.1015611825656E-11
(PID.TID 0000.0001) %MON trcstat_ptracer02_sd         =   2.8637130078400E-11
(PID.TID 0000.0001) %MON trcstat_ptracer02_del2       =   1.1001482271044E-12
(PID.TID 0000.0001) // =======================================================
(PID.TID 0000.0001) // End MONITOR ptracers field statistics
(PID.TID 0000.0001) // =======================================================
 YEAR,ACFC12north,ACFC12south  30.0013889  43.0130139  35.8417083
 YEAR,ACFC12north,ACFC12south  30.0013889  43.0130139  35.8417083
 YEAR,ACFC12north,ACFC12south  30.0013889  43.0130139  35.8417083
 YEAR,ACFC12north,ACFC12south  30.0013889  43.0130139  35.8417083
(PID.TID 0000.0001) // =======================================================
(PID.TID 0000.0001) // Begin MONITOR ptracer field statistics
(PID.TID 0000.0001) // =======================================================
(PID.TID 0000.0001) %MON trcstat_ptracer01_max        =   3.6237808600062E-10
(PID.TID 0000.0001) %MON trcstat_ptracer01_min        =  -3.6088802445593E-12
(PID.TID 0000.0001) %MON trcstat_ptracer01_mean       =   1.0795158625306E-11
(PID.TID 0000.0001) %MON trcstat_ptracer01_sd         =   3.0815187549360E-11
(PID.TID 0000.0001) %MON trcstat_ptracer01_del2       =   1.2715475368053E-12
(PID.TID 0000.0001) %MON trcstat_ptracer02_max        =   3.0044071739533E-10
(PID.TID 0000.0001) %MON trcstat_ptracer02_min        =  -2.3539582641740E-12
(PID.TID 0000.0001) %MON trcstat_ptracer02_mean       =   1.1017479534803E-11
(PID.TID 0000.0001) %MON trcstat_ptracer02_sd         =   2.8640023974981E-11
(PID.TID 0000.0001) %MON trcstat_ptracer02_del2       =   1.0963928275977E-12
(PID.TID 0000.0001) // =======================================================
(PID.TID 0000.0001) // End MONITOR ptracers field statistics
(PID.TID 0000.0001) // =======================================================
 YEAR,ACFC12north,ACFC12south  30.0027778  43.0210278  35.8484167
 YEAR,ACFC12north,ACFC12south  30.0027778  43.0210278  35.8484167
 YEAR,ACFC12north,ACFC12south  30.0027778  43.0210278  35.8484167
 YEAR,ACFC12north,ACFC12south  30.0027778  43.0210278  35.8484167
(PID.TID 0000.0001) // =======================================================
(PID.TID 0000.0001) // Begin MONITOR ptracer field statistics
(PID.TID 0000.0001) // =======================================================
(PID.TID 0000.0001) %MON trcstat_ptracer01_max        =   3.6451265098327E-10
(PID.TID 0000.0001) %MON trcstat_ptracer01_min        =  -3.6094011901838E-12
(PID.TID 0000.0001) %MON trcstat_ptracer01_mean       =   1.0807516651067E-11
(PID.TID 0000.0001) %MON trcstat_ptracer01_sd         =   3.0866253826998E-11
(PID.TID 0000.0001) %MON trcstat_ptracer01_del2       =   1.2714623703958E-12
(PID.TID 0000.0001) %MON trcstat_ptracer02_max        =   3.0058989029794E-10
(PID.TID 0000.0001) %MON trcstat_ptracer02_min        =  -2.3541606274162E-12
(PID.TID 0000.0001) %MON trcstat_ptracer02_mean       =   1.1019394277966E-11
(PID.TID 0000.0001) %MON trcstat_ptracer02_sd         =   2.8643524133295E-11
(PID.TID 0000.0001) %MON trcstat_ptracer02_del2       =   1.0935276343331E-12
(PID.TID 0000.0001) // =======================================================
(PID.TID 0000.0001) // End MONITOR ptracers field statistics
(PID.TID 0000.0001) // =======================================================
 YEAR,ACFC12north,ACFC12south  30.0041667  43.0290417  35.855125
 YEAR,ACFC12north,ACFC12south  30.0041667  43.0290417  35.855125
 YEAR,ACFC12north,ACFC12south  30.0041667  43.0290417  35.855125
 YEAR,ACFC12north,ACFC12south  30.0041667  43.0290417  35.855125
(PID.TID 0000.0001) // =======================================================
(PID.TID 0000.0001) // Begin MONITOR ptracer field statistics
(PID.TID 0000.0001) // =======================================================
(PID.TID 0000.0001) %MON trcstat_ptracer01_max        =   3.6657038483827E-10
(PID.TID 0000.0001) %MON trcstat_ptracer01_min        =  -3.6099208696779E-12
(PID.TID 0000.0001) %MON trcstat_ptracer01_mean       =   1.0819517233315E-11
(PID.TID 0000.0001) %MON trcstat_ptracer01_sd         =   3.0916086934487E-11
(PID.TID 0000.0001) %MON trcstat_ptracer01_del2       =   1.2723080064725E-12
(PID.TID 0000.0001) %MON trcstat_ptracer02_max        =   3.0073612389089E-10
(PID.TID 0000.0001) %MON trcstat_ptracer02_min        =  -2.3543631685535E-12
(PID.TID 0000.0001) %MON trcstat_ptracer02_mean       =   1.1021342751318E-11
(PID.TID 0000.0001) %MON trcstat_ptracer02_sd         =   2.8647439498366E-11
(PID.TID 0000.0001) %MON trcstat_ptracer02_del2       =   1.0917217623367E-12
(PID.TID 0000.0001) // =======================================================
(PID.TID 0000.0001) // End MONITOR ptracers field statistics
(PID.TID 0000.0001) // =======================================================
(PID.TID 0000.0001)   Seconds in section "ALL                    [THE_MODEL_MAIN]":
(PID.TID 0000.0001)           User time:  6.89995121
(PID.TID 0000.0001)         System time:  0.445931992
(PID.TID 0000.0001)     Wall clock time:  8.76662493
(PID.TID 0000.0001)          No. starts: 1
(PID.TID 0000.0001)           No. stops: 1
(PID.TID 0000.0001)   Seconds in section "INITIALISE_FIXED       [THE_MODEL_MAIN]":
(PID.TID 0000.0001)           User time:  0.372943009
(PID.TID 0000.0001)         System time:  0.0959859993
(PID.TID 0000.0001)     Wall clock time:  0.624977112
(PID.TID 0000.0001)          No. starts: 1
(PID.TID 0000.0001)           No. stops: 1
(PID.TID 0000.0001)   Seconds in section "THE_MAIN_LOOP          [THE_MODEL_MAIN]":
(PID.TID 0000.0001)           User time:  6.40602604
(PID.TID 0000.0001)         System time:  0.287955999
(PID.TID 0000.0001)     Wall clock time:  7.78526497
(PID.TID 0000.0001)          No. starts: 1
(PID.TID 0000.0001)           No. stops: 1
(PID.TID 0000.0001)   Seconds in section "INITIALISE_VARIA    [THE_MAIN_LOOP]":
(PID.TID 0000.0001)           User time:  0.594909996
(PID.TID 0000.0001)         System time:  0.122980997
(PID.TID 0000.0001)     Wall clock time:  1.00260806
(PID.TID 0000.0001)          No. starts: 1
(PID.TID 0000.0001)           No. stops: 1
(PID.TID 0000.0001)   Seconds in section "MAIN LOOP           [THE_MAIN_LOOP]":
(PID.TID 0000.0001)           User time:  5.47616708
(PID.TID 0000.0001)         System time:  0.143978
(PID.TID 0000.0001)     Wall clock time:  6.36176991
(PID.TID 0000.0001)          No. starts: 1
(PID.TID 0000.0001)           No. stops: 1
(PID.TID 0000.0001)   Seconds in section "FORWARD_STEP        [THE_MAIN_LOOP]":
(PID.TID 0000.0001)           User time:  5.47616708
(PID.TID 0000.0001)         System time:  0.143978
(PID.TID 0000.0001)     Wall clock time:  6.36158609
(PID.TID 0000.0001)          No. starts: 4
(PID.TID 0000.0001)           No. stops: 4
(PID.TID 0000.0001)   Seconds in section "LOAD_FIELDS_DRIVER  [FORWARD_STEP]":
(PID.TID 0000.0001)           User time:  1.06583691
(PID.TID 0000.0001)         System time:  0.0959849954
(PID.TID 0000.0001)     Wall clock time:  1.8272326
(PID.TID 0000.0001)          No. starts: 4
(PID.TID 0000.0001)           No. stops: 4
(PID.TID 0000.0001)   Seconds in section "EXTERNAL_FLDS_LOAD [LOAD_FLDS_DRIVER]":
(PID.TID 0000.0001)           User time:  0.0269955397
(PID.TID 0000.0001)         System time:  0.00499899685
(PID.TID 0000.0001)     Wall clock time:  0.0817461014
(PID.TID 0000.0001)          No. starts: 4
(PID.TID 0000.0001)           No. stops: 4
(PID.TID 0000.0001)   Seconds in section "OFFLINE_FLDS_LOAD  [LOAD_FLDS_DRIVER]":
(PID.TID 0000.0001)           User time:  0.970852017
(PID.TID 0000.0001)         System time:  0.0909859985
(PID.TID 0000.0001)     Wall clock time:  1.61793828
(PID.TID 0000.0001)          No. starts: 4
(PID.TID 0000.0001)           No. stops: 4
(PID.TID 0000.0001)   Seconds in section "DO_ATMOSPHERIC_PHYS [FORWARD_STEP]":
(PID.TID 0000.0001)           User time:  0.
(PID.TID 0000.0001)         System time:  0.
(PID.TID 0000.0001)     Wall clock time:  0.000142812729
(PID.TID 0000.0001)          No. starts: 4
(PID.TID 0000.0001)           No. stops: 4
(PID.TID 0000.0001)   Seconds in section "GCHEM_CALC_TENDENCY [FORWARD_STEP]":
(PID.TID 0000.0001)           User time:  0.0709904432
(PID.TID 0000.0001)         System time:  0.00499901175
(PID.TID 0000.0001)     Wall clock time:  0.0771181583
(PID.TID 0000.0001)          No. starts: 4
(PID.TID 0000.0001)           No. stops: 4
(PID.TID 0000.0001)   Seconds in section "THERMODYNAMICS      [FORWARD_STEP]":
(PID.TID 0000.0001)           User time:  3.23750699
(PID.TID 0000.0001)         System time:  0.00699898601
(PID.TID 0000.0001)     Wall clock time:  3.24790597
(PID.TID 0000.0001)          No. starts: 4
(PID.TID 0000.0001)           No. stops: 4
(PID.TID 0000.0001)   Seconds in section "TRC_CORRECTION_STEP [FORWARD_STEP]":
(PID.TID 0000.0001)           User time:  0.051992178
(PID.TID 0000.0001)         System time:  0.
(PID.TID 0000.0001)     Wall clock time:  0.0504279137
(PID.TID 0000.0001)          No. starts: 4
(PID.TID 0000.0001)           No. stops: 4
(PID.TID 0000.0001)   Seconds in section "GCHEM_FORCING_SEP  [FORWARD_STEP]":
(PID.TID 0000.0001)           User time:  0.
(PID.TID 0000.0001)         System time:  0.
(PID.TID 0000.0001)     Wall clock time:  0.000140190125
(PID.TID 0000.0001)          No. starts: 4
(PID.TID 0000.0001)           No. stops: 4
(PID.TID 0000.0001)   Seconds in section "BLOCKING_EXCHANGES  [FORWARD_STEP]":
(PID.TID 0000.0001)           User time:  0.0279960632
(PID.TID 0000.0001)         System time:  0.
(PID.TID 0000.0001)     Wall clock time:  0.0287942886
(PID.TID 0000.0001)          No. starts: 4
(PID.TID 0000.0001)           No. stops: 4
(PID.TID 0000.0001)   Seconds in section "DO_STATEVARS_TAVE   [FORWARD_STEP]":
(PID.TID 0000.0001)           User time:  0.769882441
(PID.TID 0000.0001)         System time:  0.
(PID.TID 0000.0001)     Wall clock time:  0.769040108
(PID.TID 0000.0001)          No. starts: 4
(PID.TID 0000.0001)           No. stops: 4
(PID.TID 0000.0001)   Seconds in section "DO_THE_MODEL_IO     [FORWARD_STEP]":
(PID.TID 0000.0001)           User time:  0.250962019
(PID.TID 0000.0001)         System time:  0.0359950066
(PID.TID 0000.0001)     Wall clock time:  0.358988523
(PID.TID 0000.0001)          No. starts: 4
(PID.TID 0000.0001)           No. stops: 4
(PID.TID 0000.0001)   Seconds in section "WRITE_CHECKPOINT    [FORWARD_STEP]":
(PID.TID 0000.0001)           User time:  0.
(PID.TID 0000.0001)         System time:  0.
(PID.TID 0000.0001)     Wall clock time:  0.000146865845
(PID.TID 0000.0001)          No. starts: 4
(PID.TID 0000.0001)           No. stops: 4
(PID.TID 0000.0001)   Seconds in section "WRITE_CHECKPOINT       [THE_MODEL_MAIN]":
(PID.TID 0000.0001)           User time:  0.12098217
(PID.TID 0000.0001)         System time:  0.0619899929
(PID.TID 0000.0001)     Wall clock time:  0.356226921
(PID.TID 0000.0001)          No. starts: 1
(PID.TID 0000.0001)           No. stops: 1
(PID.TID 0000.0001) // ======================================================
(PID.TID 0000.0001) // Tile <-> Tile communication statistics
(PID.TID 0000.0001) // ======================================================
(PID.TID 0000.0001) // o Tile number: 000001
(PID.TID 0000.0001) //         No. X exchanges =              0
(PID.TID 0000.0001) //            Max. X spins =              0
(PID.TID 0000.0001) //            Min. X spins =     1000000000
(PID.TID 0000.0001) //          Total. X spins =              0
(PID.TID 0000.0001) //            Avg. X spins =       0.00E+00
(PID.TID 0000.0001) //         No. Y exchanges =              0
(PID.TID 0000.0001) //            Max. Y spins =              0
(PID.TID 0000.0001) //            Min. Y spins =     1000000000
(PID.TID 0000.0001) //          Total. Y spins =              0
(PID.TID 0000.0001) //            Avg. Y spins =       0.00E+00
(PID.TID 0000.0001) // o Tile number: 000002
(PID.TID 0000.0001) //         No. X exchanges =              0
(PID.TID 0000.0001) //            Max. X spins =              0
(PID.TID 0000.0001) //            Min. X spins =     1000000000
(PID.TID 0000.0001) //          Total. X spins =              0
(PID.TID 0000.0001) //            Avg. X spins =       0.00E+00
(PID.TID 0000.0001) //         No. Y exchanges =              0
(PID.TID 0000.0001) //            Max. Y spins =              0
(PID.TID 0000.0001) //            Min. Y spins =     1000000000
(PID.TID 0000.0001) //          Total. Y spins =              0
(PID.TID 0000.0001) //            Avg. Y spins =       0.00E+00
(PID.TID 0000.0001) // o Tile number: 000003
(PID.TID 0000.0001) //         No. X exchanges =              0
(PID.TID 0000.0001) //            Max. X spins =              0
(PID.TID 0000.0001) //            Min. X spins =     1000000000
(PID.TID 0000.0001) //          Total. X spins =              0
(PID.TID 0000.0001) //            Avg. X spins =       0.00E+00
(PID.TID 0000.0001) //         No. Y exchanges =              0
(PID.TID 0000.0001) //            Max. Y spins =              0
(PID.TID 0000.0001) //            Min. Y spins =     1000000000
(PID.TID 0000.0001) //          Total. Y spins =              0
(PID.TID 0000.0001) //            Avg. Y spins =       0.00E+00
(PID.TID 0000.0001) // o Tile number: 000004
(PID.TID 0000.0001) //         No. X exchanges =              0
(PID.TID 0000.0001) //            Max. X spins =              0
(PID.TID 0000.0001) //            Min. X spins =     1000000000
(PID.TID 0000.0001) //          Total. X spins =              0
(PID.TID 0000.0001) //            Avg. X spins =       0.00E+00
(PID.TID 0000.0001) //         No. Y exchanges =              0
(PID.TID 0000.0001) //            Max. Y spins =              0
(PID.TID 0000.0001) //            Min. Y spins =     1000000000
(PID.TID 0000.0001) //          Total. Y spins =              0
(PID.TID 0000.0001) //            Avg. Y spins =       0.00E+00
(PID.TID 0000.0001) // o Thread number: 000001
(PID.TID 0000.0001) //            No. barriers =           1124
(PID.TID 0000.0001) //      Max. barrier spins =              1
(PID.TID 0000.0001) //      Min. barrier spins =              1
(PID.TID 0000.0001) //     Total barrier spins =           1124
(PID.TID 0000.0001) //      Avg. barrier spins =       1.00E+00
