(PID.TID 0000.0001) 
(PID.TID 0000.0001) // ======================================================
(PID.TID 0000.0001) //                      MITgcm UV
(PID.TID 0000.0001) //                      =========
(PID.TID 0000.0001) // ======================================================
(PID.TID 0000.0001) // execution environment starting up...
(PID.TID 0000.0001) // Run starting Wed Apr  1 14:19:48 1998
(PID.TID 0000.0001) // on melville.lcs.mit.edu
(PID.TID 0000.0001) // account cnh
(PID.TID 0000.0001) // MITgcm UV Release: $Name:  $
(PID.TID 0000.0001) 
(PID.TID 0000.0001) // =======================================================
(PID.TID 0000.0001) // Execution Environment parameter file "eedata"
(PID.TID 0000.0001) // =======================================================
(PID.TID 0000.0001) ># Example "eedata" file
(PID.TID 0000.0001) ># Lines beginning "#" are comments
(PID.TID 0000.0001) ># nTx - No. threads per process in X
(PID.TID 0000.0001) ># nTy - No. threads per process in Y
(PID.TID 0000.0001) > &EEPARMS
(PID.TID 0000.0001) > useCubedSphereExchange=.TRUE.,
(PID.TID 0000.0001) ># Activate one line below to support 2, 3 or 6 way multi-threading
(PID.TID 0000.0001) >#nTx=2,
(PID.TID 0000.0001) >#nTx=3,
(PID.TID 0000.0001) >#nTx=6,
(PID.TID 0000.0001) > &
(PID.TID 0000.0001) ># Note: Some systems use & as the
(PID.TID 0000.0001) ># namelist terminator. Other systems
(PID.TID 0000.0001) ># use a / character (as shown here).
(PID.TID 0000.0001) 
(PID.TID 0000.0001) // =======================================================
(PID.TID 0000.0001) // Computational Grid Specification ( see files "SIZE.h" )
(PID.TID 0000.0001) //                                  ( and "eedata"       )
(PID.TID 0000.0001) // =======================================================
(PID.TID 0000.0001)      nPx =    1 ; /* No. processes in X */
(PID.TID 0000.0001)      nPy =    1 ; /* No. processes in Y */
(PID.TID 0000.0001)      nSx =    6 ; /* No. tiles in X per process */
(PID.TID 0000.0001)      nSy =    1 ; /* No. tiles in Y per process */
(PID.TID 0000.0001)      sNx =   32 ; /* Tile size in X */
(PID.TID 0000.0001)      sNy =   32 ; /* Tile size in Y */
(PID.TID 0000.0001)      OLx =    3 ; /* Tile overlap distance in X */
(PID.TID 0000.0001)      OLy =    3 ; /* Tile overlap distance in Y */
(PID.TID 0000.0001)      nTx =    1 ; /* No. threads in X per process */
(PID.TID 0000.0001)      nTy =    1 ; /* No. threads in Y per process */
(PID.TID 0000.0001)       Nr =    5 ; /* No. levels in the vertical   */
(PID.TID 0000.0001)       nX =  192 ; /* Total domain size in X ( = nPx*nSx*sNx ) */
(PID.TID 0000.0001)       nY =   32 ; /* Total domain size in Y ( = nPy*nSy*sNy ) */
(PID.TID 0000.0001)   nTiles =    6 ; /* Total no. tiles per process ( = nSx*nSy ) */
(PID.TID 0000.0001)   nProcs =    1 ; /* Total no. processes ( = nPx*nPy ) */
(PID.TID 0000.0001) nThreads =    1 ; /* Total no. threads per process ( = nTx*nTy ) */
(PID.TID 0000.0001) usingMPI =    F ; /* Flag used to control whether MPI is in use */
(PID.TID 0000.0001)                   /*  note: To execute a program with MPI calls */
(PID.TID 0000.0001)                   /*  it must be launched appropriately e.g     */
(PID.TID 0000.0001)                   /*  "mpirun -np 64 ......"                    */
(PID.TID 0000.0001) 
(PID.TID 0000.0001) // ======================================================
(PID.TID 0000.0001) // Mapping of tiles to threads
(PID.TID 0000.0001) // ======================================================
(PID.TID 0000.0001) // -o- Thread   1, tiles (   1:   6,   1:   1)
(PID.TID 0000.0001) 
(PID.TID 0000.0001) // ======================================================
(PID.TID 0000.0001) // Tile <-> Tile connectvity table
(PID.TID 0000.0001) // ======================================================
(PID.TID 0000.0001) // Tile number: 000001 (process no. = 000001)
(PID.TID 0000.0001) //        WEST: Tile = 000006, Process = 000001, Comm = put
(PID.TID 0000.0001) //                bi = 000006, bj = 000001
(PID.TID 0000.0001) //        EAST: Tile = 000002, Process = 000001, Comm = put
(PID.TID 0000.0001) //                bi = 000002, bj = 000001
(PID.TID 0000.0001) //       SOUTH: Tile = 000001, Process = 000001, Comm = put
(PID.TID 0000.0001) //                bi = 000001, bj = 000001
(PID.TID 0000.0001) //       NORTH: Tile = 000001, Process = 000001, Comm = put
(PID.TID 0000.0001) //                bi = 000001, bj = 000001
(PID.TID 0000.0001) // Tile number: 000002 (process no. = 000001)
(PID.TID 0000.0001) //        WEST: Tile = 000001, Process = 000001, Comm = put
(PID.TID 0000.0001) //                bi = 000001, bj = 000001
(PID.TID 0000.0001) //        EAST: Tile = 000003, Process = 000001, Comm = put
(PID.TID 0000.0001) //                bi = 000003, bj = 000001
(PID.TID 0000.0001) //       SOUTH: Tile = 000002, Process = 000001, Comm = put
(PID.TID 0000.0001) //                bi = 000002, bj = 000001
(PID.TID 0000.0001) //       NORTH: Tile = 000002, Process = 000001, Comm = put
(PID.TID 0000.0001) //                bi = 000002, bj = 000001
(PID.TID 0000.0001) // Tile number: 000003 (process no. = 000001)
(PID.TID 0000.0001) //        WEST: Tile = 000002, Process = 000001, Comm = put
(PID.TID 0000.0001) //                bi = 000002, bj = 000001
(PID.TID 0000.0001) //        EAST: Tile = 000004, Process = 000001, Comm = put
(PID.TID 0000.0001) //                bi = 000004, bj = 000001
(PID.TID 0000.0001) //       SOUTH: Tile = 000003, Process = 000001, Comm = put
(PID.TID 0000.0001) //                bi = 000003, bj = 000001
(PID.TID 0000.0001) //       NORTH: Tile = 000003, Process = 000001, Comm = put
(PID.TID 0000.0001) //                bi = 000003, bj = 000001
(PID.TID 0000.0001) // Tile number: 000004 (process no. = 000001)
(PID.TID 0000.0001) //        WEST: Tile = 000003, Process = 000001, Comm = put
(PID.TID 0000.0001) //                bi = 000003, bj = 000001
(PID.TID 0000.0001) //        EAST: Tile = 000005, Process = 000001, Comm = put
(PID.TID 0000.0001) //                bi = 000005, bj = 000001
(PID.TID 0000.0001) //       SOUTH: Tile = 000004, Process = 000001, Comm = put
(PID.TID 0000.0001) //                bi = 000004, bj = 000001
(PID.TID 0000.0001) //       NORTH: Tile = 000004, Process = 000001, Comm = put
(PID.TID 0000.0001) //                bi = 000004, bj = 000001
(PID.TID 0000.0001) // Tile number: 000005 (process no. = 000001)
(PID.TID 0000.0001) //        WEST: Tile = 000004, Process = 000001, Comm = put
(PID.TID 0000.0001) //                bi = 000004, bj = 000001
(PID.TID 0000.0001) //        EAST: Tile = 000006, Process = 000001, Comm = put
(PID.TID 0000.0001) //                bi = 000006, bj = 000001
(PID.TID 0000.0001) //       SOUTH: Tile = 000005, Process = 000001, Comm = put
(PID.TID 0000.0001) //                bi = 000005, bj = 000001
(PID.TID 0000.0001) //       NORTH: Tile = 000005, Process = 000001, Comm = put
(PID.TID 0000.0001) //                bi = 000005, bj = 000001
(PID.TID 0000.0001) // Tile number: 000006 (process no. = 000001)
(PID.TID 0000.0001) //        WEST: Tile = 000005, Process = 000001, Comm = put
(PID.TID 0000.0001) //                bi = 000005, bj = 000001
(PID.TID 0000.0001) //        EAST: Tile = 000001, Process = 000001, Comm = put
(PID.TID 0000.0001) //                bi = 000001, bj = 000001
(PID.TID 0000.0001) //       SOUTH: Tile = 000006, Process = 000001, Comm = put
(PID.TID 0000.0001) //                bi = 000006, bj = 000001
(PID.TID 0000.0001) //       NORTH: Tile = 000006, Process = 000001, Comm = put
(PID.TID 0000.0001) //                bi = 000006, bj = 000001
(PID.TID 0000.0001) 
(PID.TID 0000.0001) // =======================================================
(PID.TID 0000.0001) // Model parameter file "data"
(PID.TID 0000.0001) // =======================================================
(PID.TID 0000.0001) ># ====================
(PID.TID 0000.0001) ># | Model parameters |
(PID.TID 0000.0001) ># ====================
(PID.TID 0000.0001) >#
(PID.TID 0000.0001) ># Continuous equation parameters
(PID.TID 0000.0001) > &PARM01
(PID.TID 0000.0001) > tRef=281.089, 289.321, 307.191, 331.377, 432.413,
(PID.TID 0000.0001) > sRef=5*0.,
(PID.TID 0000.0001) > viscAr=0.E1,
(PID.TID 0000.0001) > viscAh=0.E6,
(PID.TID 0000.0001) > viscA4=0.E17,
(PID.TID 0000.0001) > no_slip_sides=.FALSE.,
(PID.TID 0000.0001) > no_slip_bottom=.FALSE.,
(PID.TID 0000.0001) > diffKhT=0.E3,
(PID.TID 0000.0001) > diffKrT=0.,
(PID.TID 0000.0001) > diffK4T=0.E17,
(PID.TID 0000.0001) > diffKrS=0.E2,
(PID.TID 0000.0001) > diffKhS=0.E3,
(PID.TID 0000.0001) > diffK4S=0.E17,
(PID.TID 0000.0001) > buoyancyRelation='ATMOSPHERIC',
(PID.TID 0000.0001) > eosType='IDEALGAS',
(PID.TID 0000.0001) > gravity=9.81,
(PID.TID 0000.0001) > gBaro=9.81,
(PID.TID 0000.0001) > rhonil=1.0,
(PID.TID 0000.0001) > rhoConst=1.0,
(PID.TID 0000.0001) > rigidLid=.FALSE.,
(PID.TID 0000.0001) > implicitFreeSurface=.TRUE.,
(PID.TID 0000.0001) > staggerTimeStep=.TRUE.,
(PID.TID 0000.0001) > nonHydrostatic=.FALSE.,
(PID.TID 0000.0001) > readBinaryPrec=64,
(PID.TID 0000.0001) > writeBinaryPrec=64,
(PID.TID 0000.0001) > hFacMin=1.0,
(PID.TID 0000.0001) > vectorInvariantMomentum=.TRUE.,
(PID.TID 0000.0001) > &
(PID.TID 0000.0001) >
(PID.TID 0000.0001) ># Elliptic solver parameters
(PID.TID 0000.0001) > &PARM02
(PID.TID 0000.0001) > cg2dMaxIters=200,
(PID.TID 0000.0001) > cg2dTargetResidual=1.E-12,
(PID.TID 0000.0001) > &
(PID.TID 0000.0001) >
(PID.TID 0000.0001) ># Time stepping parameters
(PID.TID 0000.0001) > &PARM03
(PID.TID 0000.0001) > niter0=0,
(PID.TID 0000.0001) > nTimeSteps=20,
(PID.TID 0000.0001) >#endTime=864000.0,
(PID.TID 0000.0001) > deltaT=600.0,
(PID.TID 0000.0001) > abEps=0.1,
(PID.TID 0000.0001) > cAdjFreq=0.,
(PID.TID 0000.0001) > pChkptFreq=2592000.0,
(PID.TID 0000.0001) > chkptFreq=0.0,
(PID.TID 0000.0001) > dumpFreq=21600.0,
(PID.TID 0000.0001) > monitorFreq=1.,
(PID.TID 0000.0001) > &
(PID.TID 0000.0001) >
(PID.TID 0000.0001) ># Gridding parameters
(PID.TID 0000.0001) > &PARM04
(PID.TID 0000.0001) > usingCartesianGrid=.FALSE.,
(PID.TID 0000.0001) > usingSphericalPolarGrid=.FALSE.,
(PID.TID 0000.0001) > usingCurvilinearGrid=.TRUE.,
(PID.TID 0000.0001) > delR=1.E4, 2.5E4, 3.E4, 2.E4, 1.5E4,
(PID.TID 0000.0001) > Ro_SeaLevel=1.E5,
(PID.TID 0000.0001) > groundAtK1=.TRUE.,
(PID.TID 0000.0001) > rSphere=6370.E3,
(PID.TID 0000.0001) > &
(PID.TID 0000.0001) >
(PID.TID 0000.0001) ># Input datasets
(PID.TID 0000.0001) > &PARM05
(PID.TID 0000.0001) > &
(PID.TID 0000.0001) 
(PID.TID 0000.0001)  MDSREADFIELD: opening global file: LONC.bin
(PID.TID 0000.0001)  MDSREADFIELD: opening global file: LATC.bin
(PID.TID 0000.0001)  MDSREADFIELD: opening global file: DXF.bin
(PID.TID 0000.0001)  MDSREADFIELD: opening global file: DYF.bin
(PID.TID 0000.0001)  MDSREADFIELD: opening global file: RA.bin
(PID.TID 0000.0001)  MDSREADFIELD: opening global file: LONG.bin
(PID.TID 0000.0001)  MDSREADFIELD: opening global file: LATG.bin
(PID.TID 0000.0001)  MDSREADFIELD: opening global file: DXV.bin
(PID.TID 0000.0001)  MDSREADFIELD: opening global file: DYU.bin
(PID.TID 0000.0001)  MDSREADFIELD: opening global file: RAZ.bin
(PID.TID 0000.0001)  MDSREADFIELD: opening global file: DXC.bin
(PID.TID 0000.0001)  MDSREADFIELD: opening global file: DYC.bin
(PID.TID 0000.0001)  MDSREADFIELD: opening global file: RAW.bin
(PID.TID 0000.0001)  MDSREADFIELD: opening global file: RAS.bin
(PID.TID 0000.0001)  MDSREADFIELD: opening global file: DXG.bin
(PID.TID 0000.0001)  MDSREADFIELD: opening global file: DYG.bin
(PID.TID 0000.0001) %MON XC_max                       =   1.7854351589505E+02
(PID.TID 0000.0001) %MON XC_min                       =  -1.7854351589505E+02
(PID.TID 0000.0001) %MON XC_mean                      =   5.2180482157382E-15
(PID.TID 0000.0001) %MON XC_sd                        =   1.0355545336287E+02
(PID.TID 0000.0001) %MON XG_max                       =   1.8000000000000E+02
(PID.TID 0000.0001) %MON XG_min                       =  -1.7708797161002E+02
(PID.TID 0000.0001) %MON XG_mean                      =   1.8796250616675E+00
(PID.TID 0000.0001) %MON XG_sd                        =   1.0410625309932E+02
(PID.TID 0000.0001) %MON DXC_max                      =   3.2375185836900E+05
(PID.TID 0000.0001) %MON DXC_min                      =   1.1142031410131E+05
(PID.TID 0000.0001) %MON DXC_mean                     =   2.8605689051214E+05
(PID.TID 0000.0001) %MON DXC_sd                       =   3.4042087138252E+04
(PID.TID 0000.0001) %MON DXF_max                      =   3.2369947500827E+05
(PID.TID 0000.0001) %MON DXF_min                      =   1.2020820513318E+05
(PID.TID 0000.0001) %MON DXF_mean                     =   2.8605437324820E+05
(PID.TID 0000.0001) %MON DXF_sd                       =   3.4050524252539E+04
(PID.TID 0000.0001) %MON DXG_max                      =   3.2375195872773E+05
(PID.TID 0000.0001) %MON DXG_min                      =   1.0098378008791E+05
(PID.TID 0000.0001) %MON DXG_mean                     =   2.8603818508931E+05
(PID.TID 0000.0001) %MON DXG_sd                       =   3.4140406908005E+04
(PID.TID 0000.0001) %MON DXV_max                      =   3.2380418162750E+05
(PID.TID 0000.0001) %MON DXV_min                      =   8.0152299824136E+04
(PID.TID 0000.0001) %MON DXV_mean                     =   2.8603970633619E+05
(PID.TID 0000.0001) %MON DXV_sd                       =   3.4145142117723E+04
(PID.TID 0000.0001) %MON YC_max                       =   8.7940663871962E+01
(PID.TID 0000.0001) %MON YC_min                       =  -8.7940663871962E+01
(PID.TID 0000.0001) %MON YC_mean                      =   3.7701323544563E-16
(PID.TID 0000.0001) %MON YC_sd                        =   3.8676242969072E+01
(PID.TID 0000.0001) %MON YG_max                       =   9.0000000000000E+01
(PID.TID 0000.0001) %MON YG_min                       =  -9.0000000000000E+01
(PID.TID 0000.0001) %MON YG_mean                      =  -1.2011668255785E-15
(PID.TID 0000.0001) %MON YG_sd                        =   3.9086186579984E+01
(PID.TID 0000.0001) %MON DYC_max                      =   3.2375185836900E+05
(PID.TID 0000.0001) %MON DYC_min                      =   1.1142031410131E+05
(PID.TID 0000.0001) %MON DYC_mean                     =   2.8605689051214E+05
(PID.TID 0000.0001) %MON DYC_sd                       =   3.4042087138252E+04
(PID.TID 0000.0001) %MON DYF_max                      =   3.2369947500827E+05
(PID.TID 0000.0001) %MON DYF_min                      =   1.2020820513318E+05
(PID.TID 0000.0001) %MON DYF_mean                     =   2.8605437324820E+05
(PID.TID 0000.0001) %MON DYF_sd                       =   3.4050524252539E+04
(PID.TID 0000.0001) %MON DYG_max                      =   3.2375195872773E+05
(PID.TID 0000.0001) %MON DYG_min                      =   1.0098378008791E+05
(PID.TID 0000.0001) %MON DYG_mean                     =   2.8603818508931E+05
(PID.TID 0000.0001) %MON DYG_sd                       =   3.4140406908005E+04
(PID.TID 0000.0001) %MON DYU_max                      =   3.2380418162750E+05
(PID.TID 0000.0001) %MON DYU_min                      =   8.0152299824136E+04
(PID.TID 0000.0001) %MON DYU_mean                     =   2.8603970633619E+05
(PID.TID 0000.0001) %MON DYU_sd                       =   3.4145142117723E+04
(PID.TID 0000.0001) %MON RA_max                       =   1.0479260248419E+11
(PID.TID 0000.0001) %MON RA_min                       =   1.4019007022556E+10
(PID.TID 0000.0001) %MON RA_mean                      =   8.2992246709265E+10
(PID.TID 0000.0001) %MON RA_sd                        =   1.7509089299457E+10
(PID.TID 0000.0001) %MON RAW_max                      =   1.0480965274559E+11
(PID.TID 0000.0001) %MON RAW_min                      =   1.2166903467143E+10
(PID.TID 0000.0001) %MON RAW_mean                     =   8.2992246709235E+10
(PID.TID 0000.0001) %MON RAW_sd                       =   1.7481917919657E+10
(PID.TID 0000.0001) %MON RAS_max                      =   1.0480965274559E+11
(PID.TID 0000.0001) %MON RAS_min                      =   1.2166903467143E+10
(PID.TID 0000.0001) %MON RAS_mean                     =   8.2992246709235E+10
(PID.TID 0000.0001) %MON RAS_sd                       =   1.7481917919657E+10
(PID.TID 0000.0001) %MON RAZ_max                      =   1.0484349334619E+11
(PID.TID 0000.0001) %MON RAZ_min                      =   8.8317900612505E+09
(PID.TID 0000.0001) %MON RAZ_mean                     =   8.2992246709234E+10
(PID.TID 0000.0001) %MON RAZ_sd                       =   1.7482297311044E+10
(PID.TID 0000.0001) // =======================================================
(PID.TID 0000.0001) // Field Model R_low (ini_masks_etc) at iteration          1
(PID.TID 0000.0001) // CMIN =          1.000000000000000E+32
(PID.TID 0000.0001) // CMAX =         -1.000000000000000E+32
(PID.TID 0000.0001) // CINT =          0.000000000000000E+00
(PID.TID 0000.0001) // SYMBOLS (CMIN->CMAX): -abcdefghijklmnopqrstuvwxyz+
(PID.TID 0000.0001) //                  0.0: .
(PID.TID 0000.0001) // RANGE I (Lo:Hi:Step):(  -2: 195:   1)
(PID.TID 0000.0001) // RANGE J (Lo:Hi:Step):(  35:  -2:  -1)
(PID.TID 0000.0001) // RANGE K (Lo:Hi:Step):(   1:   1:   1)
(PID.TID 0000.0001) // =======================================================
(PID.TID 0000.0001) K =   1
(PID.TID 0000.0001) //                I=7       I=17      I=27      I=31      I=41      I=51      I=61      I=65      I=75      I=85      I=95      I=99      I=109     I=119     I=129     I=133     I=143     I=153     I=163     I=167     I=177     I=187
(PID.TID 0000.0001) // |--J--|**0123456|890123456|890123456|890123450|234567890|234567890|234567890|234567234|678901234|678901234|678901234|678945678|012345678|012345678|012345678|016789012|456789012|456789012|456789012|890123456|890123456|890123456|89012345
(PID.TID 0000.0001) //     35 ....................................................................................................................................................................................................................................
(PID.TID 0000.0001) //     34 ....................................................................................................................................................................................................................................
(PID.TID 0000.0001) //     33 ....................................................................................................................................................................................................................................
(PID.TID 0000.0001) //     32 ....................................................................................................................................................................................................................................
(PID.TID 0000.0001) //     31 ....................................................................................................................................................................................................................................
(PID.TID 0000.0001) //     30 ....................................................................................................................................................................................................................................
(PID.TID 0000.0001) //     29 ....................................................................................................................................................................................................................................
(PID.TID 0000.0001) //     28 ....................................................................................................................................................................................................................................
(PID.TID 0000.0001) //     27 ....................................................................................................................................................................................................................................
(PID.TID 0000.0001) //     26 ....................................................................................................................................................................................................................................
(PID.TID 0000.0001) //     25 ....................................................................................................................................................................................................................................
(PID.TID 0000.0001) //     24 ....................................................................................................................................................................................................................................
(PID.TID 0000.0001) //     23 ....................................................................................................................................................................................................................................
(PID.TID 0000.0001) //     22 ....................................................................................................................................................................................................................................
(PID.TID 0000.0001) //     21 ....................................................................................................................................................................................................................................
(PID.TID 0000.0001) //     20 ....................................................................................................................................................................................................................................
(PID.TID 0000.0001) //     19 ....................................................................................................................................................................................................................................
(PID.TID 0000.0001) //     18 ....................................................................................................................................................................................................................................
(PID.TID 0000.0001) //     17 ....................................................................................................................................................................................................................................
(PID.TID 0000.0001) //     16 ....................................................................................................................................................................................................................................
(PID.TID 0000.0001) //     15 ....................................................................................................................................................................................................................................
(PID.TID 0000.0001) //     14 ....................................................................................................................................................................................................................................
(PID.TID 0000.0001) //     13 ....................................................................................................................................................................................................................................
(PID.TID 0000.0001) //     12 ....................................................................................................................................................................................................................................
(PID.TID 0000.0001) //     11 ....................................................................................................................................................................................................................................
(PID.TID 0000.0001) //     10 ....................................................................................................................................................................................................................................
(PID.TID 0000.0001) //      9 ....................................................................................................................................................................................................................................
(PID.TID 0000.0001) //      8 ....................................................................................................................................................................................................................................
(PID.TID 0000.0001) //      7 ....................................................................................................................................................................................................................................
(PID.TID 0000.0001) //      6 ....................................................................................................................................................................................................................................
(PID.TID 0000.0001) //      5 ....................................................................................................................................................................................................................................
(PID.TID 0000.0001) //      4 ....................................................................................................................................................................................................................................
(PID.TID 0000.0001) //      3 ....................................................................................................................................................................................................................................
(PID.TID 0000.0001) //      2 ....................................................................................................................................................................................................................................
(PID.TID 0000.0001) //      1 ....................................................................................................................................................................................................................................
(PID.TID 0000.0001) //      0 ....................................................................................................................................................................................................................................
(PID.TID 0000.0001) //     -1 ....................................................................................................................................................................................................................................
(PID.TID 0000.0001) //     -2 ....................................................................................................................................................................................................................................
(PID.TID 0000.0001) // =======================================================
(PID.TID 0000.0001) // END OF FIELD                                          =
(PID.TID 0000.0001) // =======================================================
(PID.TID 0000.0001) 
(PID.TID 0000.0001) // =======================================================
(PID.TID 0000.0001) // Field Model Ro_surf (ini_masks_etc) at iteration          1
(PID.TID 0000.0001) // CMIN =          1.000000000000000E+05
(PID.TID 0000.0001) // CMAX =          1.000000000000000E+05
(PID.TID 0000.0001) // CINT =          0.000000000000000E+00
(PID.TID 0000.0001) // SYMBOLS (CMIN->CMAX): -abcdefghijklmnopqrstuvwxyz+
(PID.TID 0000.0001) //                  0.0: .
(PID.TID 0000.0001) // RANGE I (Lo:Hi:Step):(  -2: 195:   1)
(PID.TID 0000.0001) // RANGE J (Lo:Hi:Step):(  35:  -2:  -1)
(PID.TID 0000.0001) // RANGE K (Lo:Hi:Step):(   1:   1:   1)
(PID.TID 0000.0001) // =======================================================
(PID.TID 0000.0001) K =   1
(PID.TID 0000.0001) //                I=7       I=17      I=27      I=31      I=41      I=51      I=61      I=65      I=75      I=85      I=95      I=99      I=109     I=119     I=129     I=133     I=143     I=153     I=163     I=167     I=177     I=187
(PID.TID 0000.0001) // |--J--|**0123456|890123456|890123456|890123450|234567890|234567890|234567890|234567234|678901234|678901234|678901234|678945678|012345678|012345678|012345678|016789012|456789012|456789012|456789012|890123456|890123456|890123456|89012345
(PID.TID 0000.0001) //     35 ...--------------------------------......--------------------------------......--------------------------------......--------------------------------......--------------------------------......--------------------------------...
(PID.TID 0000.0001) //     34 ...--------------------------------......--------------------------------......--------------------------------......--------------------------------......--------------------------------......--------------------------------...
(PID.TID 0000.0001) //     33 ...--------------------------------......--------------------------------......--------------------------------......--------------------------------......--------------------------------......--------------------------------...
(PID.TID 0000.0001) //     32 ------------------------------------------------------------------------------------------------------------------------------------------------------------------------------------------------------------------------------------
(PID.TID 0000.0001) //     31 ------------------------------------------------------------------------------------------------------------------------------------------------------------------------------------------------------------------------------------
(PID.TID 0000.0001) //     30 ------------------------------------------------------------------------------------------------------------------------------------------------------------------------------------------------------------------------------------
(PID.TID 0000.0001) //     29 ------------------------------------------------------------------------------------------------------------------------------------------------------------------------------------------------------------------------------------
(PID.TID 0000.0001) //     28 ------------------------------------------------------------------------------------------------------------------------------------------------------------------------------------------------------------------------------------
(PID.TID 0000.0001) //     27 ------------------------------------------------------------------------------------------------------------------------------------------------------------------------------------------------------------------------------------
(PID.TID 0000.0001) //     26 ------------------------------------------------------------------------------------------------------------------------------------------------------------------------------------------------------------------------------------
(PID.TID 0000.0001) //     25 ------------------------------------------------------------------------------------------------------------------------------------------------------------------------------------------------------------------------------------
(PID.TID 0000.0001) //     24 ------------------------------------------------------------------------------------------------------------------------------------------------------------------------------------------------------------------------------------
(PID.TID 0000.0001) //     23 ------------------------------------------------------------------------------------------------------------------------------------------------------------------------------------------------------------------------------------
(PID.TID 0000.0001) //     22 ------------------------------------------------------------------------------------------------------------------------------------------------------------------------------------------------------------------------------------
(PID.TID 0000.0001) //     21 ------------------------------------------------------------------------------------------------------------------------------------------------------------------------------------------------------------------------------------
(PID.TID 0000.0001) //     20 ------------------------------------------------------------------------------------------------------------------------------------------------------------------------------------------------------------------------------------
(PID.TID 0000.0001) //     19 ------------------------------------------------------------------------------------------------------------------------------------------------------------------------------------------------------------------------------------
(PID.TID 0000.0001) //     18 ------------------------------------------------------------------------------------------------------------------------------------------------------------------------------------------------------------------------------------
(PID.TID 0000.0001) //     17 ------------------------------------------------------------------------------------------------------------------------------------------------------------------------------------------------------------------------------------
(PID.TID 0000.0001) //     16 ------------------------------------------------------------------------------------------------------------------------------------------------------------------------------------------------------------------------------------
(PID.TID 0000.0001) //     15 ------------------------------------------------------------------------------------------------------------------------------------------------------------------------------------------------------------------------------------
(PID.TID 0000.0001) //     14 ------------------------------------------------------------------------------------------------------------------------------------------------------------------------------------------------------------------------------------
(PID.TID 0000.0001) //     13 ------------------------------------------------------------------------------------------------------------------------------------------------------------------------------------------------------------------------------------
(PID.TID 0000.0001) //     12 ------------------------------------------------------------------------------------------------------------------------------------------------------------------------------------------------------------------------------------
(PID.TID 0000.0001) //     11 ------------------------------------------------------------------------------------------------------------------------------------------------------------------------------------------------------------------------------------
(PID.TID 0000.0001) //     10 ------------------------------------------------------------------------------------------------------------------------------------------------------------------------------------------------------------------------------------
(PID.TID 0000.0001) //      9 ------------------------------------------------------------------------------------------------------------------------------------------------------------------------------------------------------------------------------------
(PID.TID 0000.0001) //      8 ------------------------------------------------------------------------------------------------------------------------------------------------------------------------------------------------------------------------------------
(PID.TID 0000.0001) //      7 ------------------------------------------------------------------------------------------------------------------------------------------------------------------------------------------------------------------------------------
(PID.TID 0000.0001) //      6 ------------------------------------------------------------------------------------------------------------------------------------------------------------------------------------------------------------------------------------
(PID.TID 0000.0001) //      5 ------------------------------------------------------------------------------------------------------------------------------------------------------------------------------------------------------------------------------------
(PID.TID 0000.0001) //      4 ------------------------------------------------------------------------------------------------------------------------------------------------------------------------------------------------------------------------------------
(PID.TID 0000.0001) //      3 ------------------------------------------------------------------------------------------------------------------------------------------------------------------------------------------------------------------------------------
(PID.TID 0000.0001) //      2 ------------------------------------------------------------------------------------------------------------------------------------------------------------------------------------------------------------------------------------
(PID.TID 0000.0001) //      1 ------------------------------------------------------------------------------------------------------------------------------------------------------------------------------------------------------------------------------------
(PID.TID 0000.0001) //      0 ...--------------------------------......--------------------------------......--------------------------------......--------------------------------......--------------------------------......--------------------------------...
(PID.TID 0000.0001) //     -1 ...--------------------------------......--------------------------------......--------------------------------......--------------------------------......--------------------------------......--------------------------------...
(PID.TID 0000.0001) //     -2 ...--------------------------------......--------------------------------......--------------------------------......--------------------------------......--------------------------------......--------------------------------...
(PID.TID 0000.0001) // =======================================================
(PID.TID 0000.0001) // END OF FIELD                                          =
(PID.TID 0000.0001) // =======================================================
(PID.TID 0000.0001) 
(PID.TID 0000.0001) // =======================================================
(PID.TID 0000.0001) // Field hFacC at iteration          1
(PID.TID 0000.0001) // CMIN =          1.000000000000000E+00
(PID.TID 0000.0001) // CMAX =          1.000000000000000E+00
(PID.TID 0000.0001) // CINT =          0.000000000000000E+00
(PID.TID 0000.0001) // SYMBOLS (CMIN->CMAX): -abcdefghijklmnopqrstuvwxyz+
(PID.TID 0000.0001) //                  0.0: .
(PID.TID 0000.0001) // RANGE I (Lo:Hi:Step):(  -2: 195:   1)
(PID.TID 0000.0001) // RANGE J (Lo:Hi:Step):(  35:  -2:  -1)
(PID.TID 0000.0001) // RANGE K (Lo:Hi:Step):(   1:   1:   1)
(PID.TID 0000.0001) // =======================================================
(PID.TID 0000.0001) K =   1
(PID.TID 0000.0001) //                I=7       I=17      I=27      I=31      I=41      I=51      I=61      I=65      I=75      I=85      I=95      I=99      I=109     I=119     I=129     I=133     I=143     I=153     I=163     I=167     I=177     I=187
(PID.TID 0000.0001) // |--J--|**0123456|890123456|890123456|890123450|234567890|234567890|234567890|234567234|678901234|678901234|678901234|678945678|012345678|012345678|012345678|016789012|456789012|456789012|456789012|890123456|890123456|890123456|89012345
(PID.TID 0000.0001) //     35 ...--------------------------------......--------------------------------......--------------------------------......--------------------------------......--------------------------------......--------------------------------...
(PID.TID 0000.0001) //     34 ...--------------------------------......--------------------------------......--------------------------------......--------------------------------......--------------------------------......--------------------------------...
(PID.TID 0000.0001) //     33 ...--------------------------------......--------------------------------......--------------------------------......--------------------------------......--------------------------------......--------------------------------...
(PID.TID 0000.0001) //     32 ------------------------------------------------------------------------------------------------------------------------------------------------------------------------------------------------------------------------------------
(PID.TID 0000.0001) //     31 ------------------------------------------------------------------------------------------------------------------------------------------------------------------------------------------------------------------------------------
(PID.TID 0000.0001) //     30 ------------------------------------------------------------------------------------------------------------------------------------------------------------------------------------------------------------------------------------
(PID.TID 0000.0001) //     29 ------------------------------------------------------------------------------------------------------------------------------------------------------------------------------------------------------------------------------------
(PID.TID 0000.0001) //     28 ------------------------------------------------------------------------------------------------------------------------------------------------------------------------------------------------------------------------------------
(PID.TID 0000.0001) //     27 ------------------------------------------------------------------------------------------------------------------------------------------------------------------------------------------------------------------------------------
(PID.TID 0000.0001) //     26 ------------------------------------------------------------------------------------------------------------------------------------------------------------------------------------------------------------------------------------
(PID.TID 0000.0001) //     25 ------------------------------------------------------------------------------------------------------------------------------------------------------------------------------------------------------------------------------------
(PID.TID 0000.0001) //     24 ------------------------------------------------------------------------------------------------------------------------------------------------------------------------------------------------------------------------------------
(PID.TID 0000.0001) //     23 ------------------------------------------------------------------------------------------------------------------------------------------------------------------------------------------------------------------------------------
(PID.TID 0000.0001) //     22 ------------------------------------------------------------------------------------------------------------------------------------------------------------------------------------------------------------------------------------
(PID.TID 0000.0001) //     21 ------------------------------------------------------------------------------------------------------------------------------------------------------------------------------------------------------------------------------------
(PID.TID 0000.0001) //     20 ------------------------------------------------------------------------------------------------------------------------------------------------------------------------------------------------------------------------------------
(PID.TID 0000.0001) //     19 ------------------------------------------------------------------------------------------------------------------------------------------------------------------------------------------------------------------------------------
(PID.TID 0000.0001) //     18 ------------------------------------------------------------------------------------------------------------------------------------------------------------------------------------------------------------------------------------
(PID.TID 0000.0001) //     17 ------------------------------------------------------------------------------------------------------------------------------------------------------------------------------------------------------------------------------------
(PID.TID 0000.0001) //     16 ------------------------------------------------------------------------------------------------------------------------------------------------------------------------------------------------------------------------------------
(PID.TID 0000.0001) //     15 ------------------------------------------------------------------------------------------------------------------------------------------------------------------------------------------------------------------------------------
(PID.TID 0000.0001) //     14 ------------------------------------------------------------------------------------------------------------------------------------------------------------------------------------------------------------------------------------
(PID.TID 0000.0001) //     13 ------------------------------------------------------------------------------------------------------------------------------------------------------------------------------------------------------------------------------------
(PID.TID 0000.0001) //     12 ------------------------------------------------------------------------------------------------------------------------------------------------------------------------------------------------------------------------------------
(PID.TID 0000.0001) //     11 ------------------------------------------------------------------------------------------------------------------------------------------------------------------------------------------------------------------------------------
(PID.TID 0000.0001) //     10 ------------------------------------------------------------------------------------------------------------------------------------------------------------------------------------------------------------------------------------
(PID.TID 0000.0001) //      9 ------------------------------------------------------------------------------------------------------------------------------------------------------------------------------------------------------------------------------------
(PID.TID 0000.0001) //      8 ------------------------------------------------------------------------------------------------------------------------------------------------------------------------------------------------------------------------------------
(PID.TID 0000.0001) //      7 ------------------------------------------------------------------------------------------------------------------------------------------------------------------------------------------------------------------------------------
(PID.TID 0000.0001) //      6 ------------------------------------------------------------------------------------------------------------------------------------------------------------------------------------------------------------------------------------
(PID.TID 0000.0001) //      5 ------------------------------------------------------------------------------------------------------------------------------------------------------------------------------------------------------------------------------------
(PID.TID 0000.0001) //      4 ------------------------------------------------------------------------------------------------------------------------------------------------------------------------------------------------------------------------------------
(PID.TID 0000.0001) //      3 ------------------------------------------------------------------------------------------------------------------------------------------------------------------------------------------------------------------------------------
(PID.TID 0000.0001) //      2 ------------------------------------------------------------------------------------------------------------------------------------------------------------------------------------------------------------------------------------
(PID.TID 0000.0001) //      1 ------------------------------------------------------------------------------------------------------------------------------------------------------------------------------------------------------------------------------------
(PID.TID 0000.0001) //      0 ...--------------------------------......--------------------------------......--------------------------------......--------------------------------......--------------------------------......--------------------------------...
(PID.TID 0000.0001) //     -1 ...--------------------------------......--------------------------------......--------------------------------......--------------------------------......--------------------------------......--------------------------------...
(PID.TID 0000.0001) //     -2 ...--------------------------------......--------------------------------......--------------------------------......--------------------------------......--------------------------------......--------------------------------...
(PID.TID 0000.0001) // =======================================================
(PID.TID 0000.0001) // END OF FIELD                                          =
(PID.TID 0000.0001) // =======================================================
(PID.TID 0000.0001) 
(PID.TID 0000.0001) // =======================================================
(PID.TID 0000.0001) // Field hFacW at iteration          1
(PID.TID 0000.0001) // CMIN =          1.000000000000000E+00
(PID.TID 0000.0001) // CMAX =          1.000000000000000E+00
(PID.TID 0000.0001) // CINT =          0.000000000000000E+00
(PID.TID 0000.0001) // SYMBOLS (CMIN->CMAX): -abcdefghijklmnopqrstuvwxyz+
(PID.TID 0000.0001) //                  0.0: .
(PID.TID 0000.0001) // RANGE I (Lo:Hi:Step):(  -2: 195:   1)
(PID.TID 0000.0001) // RANGE J (Lo:Hi:Step):(  35:  -2:  -1)
(PID.TID 0000.0001) // RANGE K (Lo:Hi:Step):(   1:   1:   1)
(PID.TID 0000.0001) // =======================================================
(PID.TID 0000.0001) K =   1
(PID.TID 0000.0001) //                I=7       I=17      I=27      I=31      I=41      I=51      I=61      I=65      I=75      I=85      I=95      I=99      I=109     I=119     I=129     I=133     I=143     I=153     I=163     I=167     I=177     I=187
(PID.TID 0000.0001) // |--J--|**0123456|890123456|890123456|890123450|234567890|234567890|234567890|234567234|678901234|678901234|678901234|678945678|012345678|012345678|012345678|016789012|456789012|456789012|456789012|890123456|890123456|890123456|89012345
(PID.TID 0000.0001) //     35 ...---------------------------------.....---------------------------------.....---------------------------------.....---------------------------------.....---------------------------------.....---------------------------------..
(PID.TID 0000.0001) //     34 ...---------------------------------.....---------------------------------.....---------------------------------.....---------------------------------.....---------------------------------.....---------------------------------..
(PID.TID 0000.0001) //     33 ...---------------------------------.....---------------------------------.....---------------------------------.....---------------------------------.....---------------------------------.....---------------------------------..
(PID.TID 0000.0001) //     32 ------------------------------------------------------------------------------------------------------------------------------------------------------------------------------------------------------------------------------------
(PID.TID 0000.0001) //     31 ------------------------------------------------------------------------------------------------------------------------------------------------------------------------------------------------------------------------------------
(PID.TID 0000.0001) //     30 ------------------------------------------------------------------------------------------------------------------------------------------------------------------------------------------------------------------------------------
(PID.TID 0000.0001) //     29 ------------------------------------------------------------------------------------------------------------------------------------------------------------------------------------------------------------------------------------
(PID.TID 0000.0001) //     28 ------------------------------------------------------------------------------------------------------------------------------------------------------------------------------------------------------------------------------------
(PID.TID 0000.0001) //     27 ------------------------------------------------------------------------------------------------------------------------------------------------------------------------------------------------------------------------------------
(PID.TID 0000.0001) //     26 ------------------------------------------------------------------------------------------------------------------------------------------------------------------------------------------------------------------------------------
(PID.TID 0000.0001) //     25 ------------------------------------------------------------------------------------------------------------------------------------------------------------------------------------------------------------------------------------
(PID.TID 0000.0001) //     24 ------------------------------------------------------------------------------------------------------------------------------------------------------------------------------------------------------------------------------------
(PID.TID 0000.0001) //     23 ------------------------------------------------------------------------------------------------------------------------------------------------------------------------------------------------------------------------------------
(PID.TID 0000.0001) //     22 ------------------------------------------------------------------------------------------------------------------------------------------------------------------------------------------------------------------------------------
(PID.TID 0000.0001) //     21 ------------------------------------------------------------------------------------------------------------------------------------------------------------------------------------------------------------------------------------
(PID.TID 0000.0001) //     20 ------------------------------------------------------------------------------------------------------------------------------------------------------------------------------------------------------------------------------------
(PID.TID 0000.0001) //     19 ------------------------------------------------------------------------------------------------------------------------------------------------------------------------------------------------------------------------------------
(PID.TID 0000.0001) //     18 ------------------------------------------------------------------------------------------------------------------------------------------------------------------------------------------------------------------------------------
(PID.TID 0000.0001) //     17 ------------------------------------------------------------------------------------------------------------------------------------------------------------------------------------------------------------------------------------
(PID.TID 0000.0001) //     16 ------------------------------------------------------------------------------------------------------------------------------------------------------------------------------------------------------------------------------------
(PID.TID 0000.0001) //     15 ------------------------------------------------------------------------------------------------------------------------------------------------------------------------------------------------------------------------------------
(PID.TID 0000.0001) //     14 ------------------------------------------------------------------------------------------------------------------------------------------------------------------------------------------------------------------------------------
(PID.TID 0000.0001) //     13 ------------------------------------------------------------------------------------------------------------------------------------------------------------------------------------------------------------------------------------
(PID.TID 0000.0001) //     12 ------------------------------------------------------------------------------------------------------------------------------------------------------------------------------------------------------------------------------------
(PID.TID 0000.0001) //     11 ------------------------------------------------------------------------------------------------------------------------------------------------------------------------------------------------------------------------------------
(PID.TID 0000.0001) //     10 ------------------------------------------------------------------------------------------------------------------------------------------------------------------------------------------------------------------------------------
(PID.TID 0000.0001) //      9 ------------------------------------------------------------------------------------------------------------------------------------------------------------------------------------------------------------------------------------
(PID.TID 0000.0001) //      8 ------------------------------------------------------------------------------------------------------------------------------------------------------------------------------------------------------------------------------------
(PID.TID 0000.0001) //      7 ------------------------------------------------------------------------------------------------------------------------------------------------------------------------------------------------------------------------------------
(PID.TID 0000.0001) //      6 ------------------------------------------------------------------------------------------------------------------------------------------------------------------------------------------------------------------------------------
(PID.TID 0000.0001) //      5 ------------------------------------------------------------------------------------------------------------------------------------------------------------------------------------------------------------------------------------
(PID.TID 0000.0001) //      4 ------------------------------------------------------------------------------------------------------------------------------------------------------------------------------------------------------------------------------------
(PID.TID 0000.0001) //      3 ------------------------------------------------------------------------------------------------------------------------------------------------------------------------------------------------------------------------------------
(PID.TID 0000.0001) //      2 ------------------------------------------------------------------------------------------------------------------------------------------------------------------------------------------------------------------------------------
(PID.TID 0000.0001) //      1 ------------------------------------------------------------------------------------------------------------------------------------------------------------------------------------------------------------------------------------
(PID.TID 0000.0001) //      0 ...---------------------------------.....---------------------------------.....---------------------------------.....---------------------------------.....---------------------------------.....---------------------------------..
(PID.TID 0000.0001) //     -1 ...---------------------------------.....---------------------------------.....---------------------------------.....---------------------------------.....---------------------------------.....---------------------------------..
(PID.TID 0000.0001) //     -2 ...---------------------------------.....---------------------------------.....---------------------------------.....---------------------------------.....---------------------------------.....---------------------------------..
(PID.TID 0000.0001) // =======================================================
(PID.TID 0000.0001) // END OF FIELD                                          =
(PID.TID 0000.0001) // =======================================================
(PID.TID 0000.0001) 
(PID.TID 0000.0001) // =======================================================
(PID.TID 0000.0001) // Field hFacS at iteration          1
(PID.TID 0000.0001) // CMIN =          1.000000000000000E+00
(PID.TID 0000.0001) // CMAX =          1.000000000000000E+00
(PID.TID 0000.0001) // CINT =          0.000000000000000E+00
(PID.TID 0000.0001) // SYMBOLS (CMIN->CMAX): -abcdefghijklmnopqrstuvwxyz+
(PID.TID 0000.0001) //                  0.0: .
(PID.TID 0000.0001) // RANGE I (Lo:Hi:Step):(  -2: 195:   1)
(PID.TID 0000.0001) // RANGE J (Lo:Hi:Step):(  35:  -2:  -1)
(PID.TID 0000.0001) // RANGE K (Lo:Hi:Step):(   1:   1:   1)
(PID.TID 0000.0001) // =======================================================
(PID.TID 0000.0001) K =   1
(PID.TID 0000.0001) //                I=7       I=17      I=27      I=31      I=41      I=51      I=61      I=65      I=75      I=85      I=95      I=99      I=109     I=119     I=129     I=133     I=143     I=153     I=163     I=167     I=177     I=187
(PID.TID 0000.0001) // |--J--|**0123456|890123456|890123456|890123450|234567890|234567890|234567890|234567234|678901234|678901234|678901234|678945678|012345678|012345678|012345678|016789012|456789012|456789012|456789012|890123456|890123456|890123456|89012345
(PID.TID 0000.0001) //     35 ...--------------------------------......--------------------------------......--------------------------------......--------------------------------......--------------------------------......--------------------------------...
(PID.TID 0000.0001) //     34 ...--------------------------------......--------------------------------......--------------------------------......--------------------------------......--------------------------------......--------------------------------...
(PID.TID 0000.0001) //     33 ------------------------------------------------------------------------------------------------------------------------------------------------------------------------------------------------------------------------------------
(PID.TID 0000.0001) //     32 ------------------------------------------------------------------------------------------------------------------------------------------------------------------------------------------------------------------------------------
(PID.TID 0000.0001) //     31 ------------------------------------------------------------------------------------------------------------------------------------------------------------------------------------------------------------------------------------
(PID.TID 0000.0001) //     30 ------------------------------------------------------------------------------------------------------------------------------------------------------------------------------------------------------------------------------------
(PID.TID 0000.0001) //     29 ------------------------------------------------------------------------------------------------------------------------------------------------------------------------------------------------------------------------------------
(PID.TID 0000.0001) //     28 ------------------------------------------------------------------------------------------------------------------------------------------------------------------------------------------------------------------------------------
(PID.TID 0000.0001) //     27 ------------------------------------------------------------------------------------------------------------------------------------------------------------------------------------------------------------------------------------
(PID.TID 0000.0001) //     26 ------------------------------------------------------------------------------------------------------------------------------------------------------------------------------------------------------------------------------------
(PID.TID 0000.0001) //     25 ------------------------------------------------------------------------------------------------------------------------------------------------------------------------------------------------------------------------------------
(PID.TID 0000.0001) //     24 ------------------------------------------------------------------------------------------------------------------------------------------------------------------------------------------------------------------------------------
(PID.TID 0000.0001) //     23 ------------------------------------------------------------------------------------------------------------------------------------------------------------------------------------------------------------------------------------
(PID.TID 0000.0001) //     22 ------------------------------------------------------------------------------------------------------------------------------------------------------------------------------------------------------------------------------------
(PID.TID 0000.0001) //     21 ------------------------------------------------------------------------------------------------------------------------------------------------------------------------------------------------------------------------------------
(PID.TID 0000.0001) //     20 ------------------------------------------------------------------------------------------------------------------------------------------------------------------------------------------------------------------------------------
(PID.TID 0000.0001) //     19 ------------------------------------------------------------------------------------------------------------------------------------------------------------------------------------------------------------------------------------
(PID.TID 0000.0001) //     18 ------------------------------------------------------------------------------------------------------------------------------------------------------------------------------------------------------------------------------------
(PID.TID 0000.0001) //     17 ------------------------------------------------------------------------------------------------------------------------------------------------------------------------------------------------------------------------------------
(PID.TID 0000.0001) //     16 ------------------------------------------------------------------------------------------------------------------------------------------------------------------------------------------------------------------------------------
(PID.TID 0000.0001) //     15 ------------------------------------------------------------------------------------------------------------------------------------------------------------------------------------------------------------------------------------
(PID.TID 0000.0001) //     14 ------------------------------------------------------------------------------------------------------------------------------------------------------------------------------------------------------------------------------------
(PID.TID 0000.0001) //     13 ------------------------------------------------------------------------------------------------------------------------------------------------------------------------------------------------------------------------------------
(PID.TID 0000.0001) //     12 ------------------------------------------------------------------------------------------------------------------------------------------------------------------------------------------------------------------------------------
(PID.TID 0000.0001) //     11 ------------------------------------------------------------------------------------------------------------------------------------------------------------------------------------------------------------------------------------
(PID.TID 0000.0001) //     10 ------------------------------------------------------------------------------------------------------------------------------------------------------------------------------------------------------------------------------------
(PID.TID 0000.0001) //      9 ------------------------------------------------------------------------------------------------------------------------------------------------------------------------------------------------------------------------------------
(PID.TID 0000.0001) //      8 ------------------------------------------------------------------------------------------------------------------------------------------------------------------------------------------------------------------------------------
(PID.TID 0000.0001) //      7 ------------------------------------------------------------------------------------------------------------------------------------------------------------------------------------------------------------------------------------
(PID.TID 0000.0001) //      6 ------------------------------------------------------------------------------------------------------------------------------------------------------------------------------------------------------------------------------------
(PID.TID 0000.0001) //      5 ------------------------------------------------------------------------------------------------------------------------------------------------------------------------------------------------------------------------------------
(PID.TID 0000.0001) //      4 ------------------------------------------------------------------------------------------------------------------------------------------------------------------------------------------------------------------------------------
(PID.TID 0000.0001) //      3 ------------------------------------------------------------------------------------------------------------------------------------------------------------------------------------------------------------------------------------
(PID.TID 0000.0001) //      2 ------------------------------------------------------------------------------------------------------------------------------------------------------------------------------------------------------------------------------------
(PID.TID 0000.0001) //      1 ------------------------------------------------------------------------------------------------------------------------------------------------------------------------------------------------------------------------------------
(PID.TID 0000.0001) //      0 ...--------------------------------......--------------------------------......--------------------------------......--------------------------------......--------------------------------......--------------------------------...
(PID.TID 0000.0001) //     -1 ...--------------------------------......--------------------------------......--------------------------------......--------------------------------......--------------------------------......--------------------------------...
(PID.TID 0000.0001) //     -2 ...--------------------------------......--------------------------------......--------------------------------......--------------------------------......--------------------------------......--------------------------------...
(PID.TID 0000.0001) // =======================================================
(PID.TID 0000.0001) // END OF FIELD                                          =
(PID.TID 0000.0001) // =======================================================
(PID.TID 0000.0001) 
(PID.TID 0000.0001) %MON fCori_max                    =   1.4535016908525E-04
(PID.TID 0000.0001) %MON fCori_min                    =  -1.4535016908525E-04
(PID.TID 0000.0001) %MON fCori_mean                   =   8.5365039215472E-22
(PID.TID 0000.0001) %MON fCori_sd                     =   8.3972192788621E-05
(PID.TID 0000.0001) %MON fCoriG_max                   =   1.4544410433286E-04
(PID.TID 0000.0001) %MON fCoriG_min                   =  -1.4544410433286E-04
(PID.TID 0000.0001) %MON fCoriG_mean                  =   9.9796700966398E-22
(PID.TID 0000.0001) %MON fCoriG_sd                    =   8.4860812167727E-05
(PID.TID 0000.0001)  PACKAGE_INIT: opening data.pkg
(PID.TID 0000.0001)  OPEN_COPY_DATA_FILE: opening file data.pkg
(PID.TID 0000.0001) // =======================================================
(PID.TID 0000.0001) // Parameter file "data.pkg"
(PID.TID 0000.0001) // =======================================================
(PID.TID 0000.0001) ># Packages
(PID.TID 0000.0001) > &PACKAGES
(PID.TID 0000.0001) > useSHAP_FILT=.TRUE.,
(PID.TID 0000.0001) > &
(PID.TID 0000.0001) 
(PID.TID 0000.0001)  PACKAGE_INIT: finished reading data.pkg
(PID.TID 0000.0001)  SHAP_FILT_READPARMS: opening data.shap
(PID.TID 0000.0001)  OPEN_COPY_DATA_FILE: opening file data.shap
(PID.TID 0000.0001) // =======================================================
(PID.TID 0000.0001) // Parameter file "data.shap"
(PID.TID 0000.0001) // =======================================================
(PID.TID 0000.0001) ># Packages
(PID.TID 0000.0001) > &SHAP_PARM01
(PID.TID 0000.0001) > nShapT=0,
(PID.TID 0000.0001) > nShapUV=4,
(PID.TID 0000.0001) > Shap_funct=20,
(PID.TID 0000.0001) > &
(PID.TID 0000.0001) 
(PID.TID 0000.0001)  SHAP_FILT_READPARMS: finished reading data.shap
 Shap_funct, nShap_Tr,UV _Phys= 20 0 4 0 0
 Shap_Trtau,Shap_uvtau=  600.  600.
(PID.TID 0000.0001) // CG2D normalisation factor =          0.9911960384346746067178377E-05
(PID.TID 0000.0001) 
(PID.TID 0000.0001) // =======================================================
(PID.TID 0000.0001) // Model configuration
(PID.TID 0000.0001) // =======================================================
(PID.TID 0000.0001) //
(PID.TID 0000.0001) // "Physical" paramters ( PARM01 in namelist )
(PID.TID 0000.0001) //
(PID.TID 0000.0001) tRef =   /* Reference temperature profile ( oC or oK ) */
(PID.TID 0000.0001)                 2.810890000000000E+02,      /* K =  1 */
(PID.TID 0000.0001)                 2.893210000000000E+02,      /* K =  2 */
(PID.TID 0000.0001)                 3.071910000000000E+02,      /* K =  3 */
(PID.TID 0000.0001)                 3.313770000000000E+02,      /* K =  4 */
(PID.TID 0000.0001)                 4.324130000000000E+02       /* K =  5 */
(PID.TID 0000.0001)     ;
(PID.TID 0000.0001) sRef =   /* Reference salinity profile ( ppt ) */
(PID.TID 0000.0001)     5 @  0.000000000000000E+00              /* K =  1:  5 */
(PID.TID 0000.0001)     ;
(PID.TID 0000.0001) viscAh =   /* Lateral eddy viscosity ( m^2/s ) */
(PID.TID 0000.0001)                 0.000000000000000E+00
(PID.TID 0000.0001)     ;
(PID.TID 0000.0001) viscAh =   /* Lateral biharmonic viscosity ( m^4/s ) */
(PID.TID 0000.0001)                 0.000000000000000E+00
(PID.TID 0000.0001)     ;
(PID.TID 0000.0001) no_slip_sides =  /* Viscous BCs: No-slip sides */
(PID.TID 0000.0001)                   F
(PID.TID 0000.0001)     ;
(PID.TID 0000.0001) viscAr =   /* Vertical eddy viscosity ( units of r^2/s ) */
(PID.TID 0000.0001)                 0.000000000000000E+00
(PID.TID 0000.0001)     ;
(PID.TID 0000.0001) diffKhT =   /* Laplacian diffusion of heat laterally ( m^2/s ) */
(PID.TID 0000.0001)                 0.000000000000000E+00
(PID.TID 0000.0001)     ;
(PID.TID 0000.0001) diffK4T =   /* Bihaarmonic diffusion of heat laterally ( m^4/s ) */
(PID.TID 0000.0001)                 0.000000000000000E+00
(PID.TID 0000.0001)     ;
(PID.TID 0000.0001) diffKzT =   /* Laplacian diffusion of heat vertically ( m^2/s ) */
(PID.TID 0000.0001)                 1.234567000000000E+05
(PID.TID 0000.0001)     ;
(PID.TID 0000.0001) diffKrT =   /* Laplacian diffusion of heat vertically ( m^2/s ) */
(PID.TID 0000.0001)                 0.000000000000000E+00
(PID.TID 0000.0001)     ;
(PID.TID 0000.0001) diffKhS =   /* Laplacian diffusion of salt laterally ( m^2/s ) */
(PID.TID 0000.0001)                 0.000000000000000E+00
(PID.TID 0000.0001)     ;
(PID.TID 0000.0001) diffK4S =   /* Bihaarmonic diffusion of salt laterally ( m^4/s ) */
(PID.TID 0000.0001)                 0.000000000000000E+00
(PID.TID 0000.0001)     ;
(PID.TID 0000.0001) diffKzS =   /* Laplacian diffusion of salt vertically ( m^2/s ) */
(PID.TID 0000.0001)                 1.234567000000000E+05
(PID.TID 0000.0001)     ;
(PID.TID 0000.0001) diffKrS =   /* Laplacian diffusion of salt vertically ( m^2/s ) */
(PID.TID 0000.0001)                 0.000000000000000E+00
(PID.TID 0000.0001)     ;
(PID.TID 0000.0001) tAlpha =   /* Linear EOS thermal expansion coefficient ( 1/degree ) */
(PID.TID 0000.0001)                 2.000000000000000E-04
(PID.TID 0000.0001)     ;
(PID.TID 0000.0001) sBeta =   /* Linear EOS haline contraction coefficient ( 1/ppt ) */
(PID.TID 0000.0001)                 7.400000000000000E-04
(PID.TID 0000.0001)     ;
(PID.TID 0000.0001) rhonil =   /* Reference density ( kg/m^3 ) */
(PID.TID 0000.0001)                 1.000000000000000E+00
(PID.TID 0000.0001)     ;
(PID.TID 0000.0001) rhoConst =   /* Reference density ( kg/m^3 ) */
(PID.TID 0000.0001)                 1.000000000000000E+00
(PID.TID 0000.0001)     ;
(PID.TID 0000.0001) gravity =   /* Gravitational acceleration ( m/s^2 ) */
(PID.TID 0000.0001)                 9.810000000000000E+00
(PID.TID 0000.0001)     ;
(PID.TID 0000.0001) gBaro =   /* Barotropic gravity ( m/s^2 ) */
(PID.TID 0000.0001)                 9.810000000000000E+00
(PID.TID 0000.0001)     ;
(PID.TID 0000.0001) f0 =   /* Reference coriolis parameter ( 1/s ) */
(PID.TID 0000.0001)                 1.000000000000000E-04
(PID.TID 0000.0001)     ;
(PID.TID 0000.0001) beta =   /* Beta ( 1/(m.s) ) */
(PID.TID 0000.0001)                 9.999999999999999E-12
(PID.TID 0000.0001)     ;
(PID.TID 0000.0001) freeSurfFac =   /* Implicit free surface factor */
(PID.TID 0000.0001)                 1.000000000000000E+00
(PID.TID 0000.0001)     ;
(PID.TID 0000.0001) implicitFreeSurface =   /* Implicit free surface on/off flag */
(PID.TID 0000.0001)                   T
(PID.TID 0000.0001)     ;
(PID.TID 0000.0001) rigidLid =   /* Rigid lid on/off flag */
(PID.TID 0000.0001)                   F
(PID.TID 0000.0001)     ;
[...]
(PID.TID 0000.0001)                       cg2d_iters =    16
(PID.TID 0000.0001)                         cg2d_res =    2.97558394047385E-13
(PID.TID 0000.0001) // =======================================================
(PID.TID 0000.0001) // Begin MONITOR dynamic field statistics
(PID.TID 0000.0001) // =======================================================
(PID.TID 0000.0001) %MON time_tsnumber                =                    18
(PID.TID 0000.0001) %MON time_secondsf                =   1.0800000000000E+04
(PID.TID 0000.0001) %MON time_secondsi                =                 10800
(PID.TID 0000.0001) %MON dynstat_eta_max              =   4.2449415371985E+03
(PID.TID 0000.0001) %MON dynstat_eta_min              =  -3.1165047187201E+03
(PID.TID 0000.0001) %MON dynstat_eta_mean             =   5.4009456384087E+01
(PID.TID 0000.0001) %MON dynstat_eta_sd               =   2.3208048178211E+03
(PID.TID 0000.0001) %MON dynstat_uvel_max             =   3.3111334573382E+01
(PID.TID 0000.0001) %MON dynstat_uvel_min             =  -3.3111943124232E+01
(PID.TID 0000.0001) %MON dynstat_uvel_mean            =   1.1669212330315E+00
(PID.TID 0000.0001) %MON dynstat_uvel_sd              =   1.0191395742208E+01
(PID.TID 0000.0001) %MON dynstat_vvel_max             =   3.3111334573382E+01
(PID.TID 0000.0001) %MON dynstat_vvel_min             =  -3.3111943124232E+01
(PID.TID 0000.0001) %MON dynstat_vvel_mean            =   1.1669212330315E+00
(PID.TID 0000.0001) %MON dynstat_vvel_sd              =   1.0191395742208E+01
(PID.TID 0000.0001) %MON dynstat_wvel_max             =   5.2168750528446E-01
(PID.TID 0000.0001) %MON dynstat_wvel_min             =  -4.3880157328000E-01
(PID.TID 0000.0001) %MON dynstat_wvel_mean            =   8.9515059687480E-03
(PID.TID 0000.0001) %MON dynstat_wvel_sd              =   2.6948861964030E-01
(PID.TID 0000.0001) %MON dynstat_theta_max            =   4.2436510986905E+02
(PID.TID 0000.0001) %MON dynstat_theta_min            =   2.5508291061693E+02
(PID.TID 0000.0001) %MON dynstat_theta_mean           =   3.2466758093239E+02
(PID.TID 0000.0001) %MON dynstat_theta_sd             =   4.9893352146564E+01
(PID.TID 0000.0001) %MON dynstat_salt_max             =   0.0000000000000E+00
(PID.TID 0000.0001) %MON dynstat_salt_min             =   0.0000000000000E+00
(PID.TID 0000.0001) %MON dynstat_salt_mean            =   0.0000000000000E+00
(PID.TID 0000.0001) %MON dynstat_salt_sd              =   0.0000000000000E+00
(PID.TID 0000.0001) %MON advcfl_uvel_max              =   1.7830829175796E-01
(PID.TID 0000.0001) %MON advcfl_vvel_max              =   1.7830829175796E-01
(PID.TID 0000.0001) %MON advcfl_wvel_max              =   6.1940442634713E-02
(PID.TID 0000.0001) %MON advcfl_W_hf_max              =   6.2602500634135E-02
(PID.TID 0000.0001) %MON ke_max                       =   5.8746844845753E+02
(PID.TID 0000.0001) %MON ke_mean                      =   1.0522625233839E+02
(PID.TID 0000.0001) // =======================================================
(PID.TID 0000.0001) // End MONITOR dynamic field statistics
(PID.TID 0000.0001) // =======================================================
 cg2d: Sum(rhs),rhsMax =   2.79899367572334E-11  1.31073385817281E+04
(PID.TID 0000.0001)                    cg2d_init_res =    2.74294457567898E+00
(PID.TID 0000.0001)                       cg2d_iters =    16
(PID.TID 0000.0001)                         cg2d_res =    2.92894090721402E-13
(PID.TID 0000.0001) // =======================================================
(PID.TID 0000.0001) // Begin MONITOR dynamic field statistics
(PID.TID 0000.0001) // =======================================================
(PID.TID 0000.0001) %MON time_tsnumber                =                    19
(PID.TID 0000.0001) %MON time_secondsf                =   1.1400000000000E+04
(PID.TID 0000.0001) %MON time_secondsi                =                 11400
(PID.TID 0000.0001) %MON dynstat_eta_max              =   4.5298531525803E+03
(PID.TID 0000.0001) %MON dynstat_eta_min              =  -3.3643726450793E+03
(PID.TID 0000.0001) %MON dynstat_eta_mean             =   5.7735079363199E+01
(PID.TID 0000.0001) %MON dynstat_eta_sd               =   2.4988258340772E+03
(PID.TID 0000.0001) %MON dynstat_uvel_max             =   3.3893454451890E+01
(PID.TID 0000.0001) %MON dynstat_uvel_min             =  -3.3893739439675E+01
(PID.TID 0000.0001) %MON dynstat_uvel_mean            =   1.2572329735297E+00
(PID.TID 0000.0001) %MON dynstat_uvel_sd              =   1.0478416883700E+01
(PID.TID 0000.0001) %MON dynstat_vvel_max             =   3.3893454451890E+01
(PID.TID 0000.0001) %MON dynstat_vvel_min             =  -3.3893739439675E+01
(PID.TID 0000.0001) %MON dynstat_vvel_mean            =   1.2572329735297E+00
(PID.TID 0000.0001) %MON dynstat_vvel_sd              =   1.0478416883700E+01
(PID.TID 0000.0001) %MON dynstat_wvel_max             =   5.2039786612932E-01
(PID.TID 0000.0001) %MON dynstat_wvel_min             =  -4.4411361125318E-01
(PID.TID 0000.0001) %MON dynstat_wvel_mean            =   9.2731903287669E-03
(PID.TID 0000.0001) %MON dynstat_wvel_sd              =   2.6998176711970E-01
(PID.TID 0000.0001) %MON dynstat_theta_max            =   4.2467746131247E+02
(PID.TID 0000.0001) %MON dynstat_theta_min            =   2.5508389949909E+02
(PID.TID 0000.0001) %MON dynstat_theta_mean           =   3.2470146394995E+02
(PID.TID 0000.0001) %MON dynstat_theta_sd             =   4.9883908550871E+01
(PID.TID 0000.0001) %MON dynstat_salt_max             =   0.0000000000000E+00
(PID.TID 0000.0001) %MON dynstat_salt_min             =   0.0000000000000E+00
(PID.TID 0000.0001) %MON dynstat_salt_mean            =   0.0000000000000E+00
(PID.TID 0000.0001) %MON dynstat_salt_sd              =   0.0000000000000E+00
(PID.TID 0000.0001) %MON advcfl_uvel_max              =   1.8251827620334E-01
(PID.TID 0000.0001) %MON advcfl_vvel_max              =   1.8251827620334E-01
(PID.TID 0000.0001) %MON advcfl_wvel_max              =   6.1700925283997E-02
(PID.TID 0000.0001) %MON advcfl_W_hf_max              =   6.2447743935519E-02
(PID.TID 0000.0001) %MON ke_max                       =   6.2117052264513E+02
(PID.TID 0000.0001) %MON ke_mean                      =   1.1137785513834E+02
(PID.TID 0000.0001) // =======================================================
(PID.TID 0000.0001) // End MONITOR dynamic field statistics
(PID.TID 0000.0001) // =======================================================
 cg2d: Sum(rhs),rhsMax =   2.73734229727651E-11  1.38889274383898E+04
(PID.TID 0000.0001)                    cg2d_init_res =    2.51424233694764E+00
(PID.TID 0000.0001)                       cg2d_iters =    16
(PID.TID 0000.0001)                         cg2d_res =    2.87846250723403E-13
(PID.TID 0000.0001) // =======================================================
(PID.TID 0000.0001) // Begin MONITOR dynamic field statistics
(PID.TID 0000.0001) // =======================================================
(PID.TID 0000.0001) %MON time_tsnumber                =                    20
(PID.TID 0000.0001) %MON time_secondsf                =   1.2000000000000E+04
(PID.TID 0000.0001) %MON time_secondsi                =                 12000
(PID.TID 0000.0001) %MON dynstat_eta_max              =   4.8021147162253E+03
(PID.TID 0000.0001) %MON dynstat_eta_min              =  -3.6054889984482E+03
(PID.TID 0000.0001) %MON dynstat_eta_mean             =   6.1480470184886E+01
(PID.TID 0000.0001) %MON dynstat_eta_sd               =   2.6718908166289E+03
(PID.TID 0000.0001) %MON dynstat_uvel_max             =   3.4535888936594E+01
(PID.TID 0000.0001) %MON dynstat_uvel_min             =  -3.4535767311213E+01
(PID.TID 0000.0001) %MON dynstat_uvel_mean            =   1.3448853379049E+00
(PID.TID 0000.0001) %MON dynstat_uvel_sd              =   1.0739492720118E+01
(PID.TID 0000.0001) %MON dynstat_vvel_max             =   3.4535888936594E+01
(PID.TID 0000.0001) %MON dynstat_vvel_min             =  -3.4535767311213E+01
(PID.TID 0000.0001) %MON dynstat_vvel_mean            =   1.3448853379049E+00
(PID.TID 0000.0001) %MON dynstat_vvel_sd              =   1.0739492720118E+01
(PID.TID 0000.0001) %MON dynstat_wvel_max             =   5.1367631142611E-01
(PID.TID 0000.0001) %MON dynstat_wvel_min             =  -4.4761525073327E-01
(PID.TID 0000.0001) %MON dynstat_wvel_mean            =   9.6025839007811E-03
(PID.TID 0000.0001) %MON dynstat_wvel_sd              =   2.6859403527023E-01
(PID.TID 0000.0001) %MON dynstat_theta_max            =   4.2498154302387E+02
(PID.TID 0000.0001) %MON dynstat_theta_min            =   2.5508498008593E+02
(PID.TID 0000.0001) %MON dynstat_theta_mean           =   3.2473446393766E+02
(PID.TID 0000.0001) %MON dynstat_theta_sd             =   4.9875178203019E+01
(PID.TID 0000.0001) %MON dynstat_salt_max             =   0.0000000000000E+00
(PID.TID 0000.0001) %MON dynstat_salt_min             =   0.0000000000000E+00
(PID.TID 0000.0001) %MON dynstat_salt_mean            =   0.0000000000000E+00
(PID.TID 0000.0001) %MON dynstat_salt_sd              =   0.0000000000000E+00
(PID.TID 0000.0001) %MON advcfl_uvel_max              =   1.8597626051490E-01
(PID.TID 0000.0001) %MON advcfl_vvel_max              =   1.8597626051490E-01
(PID.TID 0000.0001) %MON advcfl_wvel_max              =   6.0760441598299E-02
(PID.TID 0000.0001) %MON advcfl_W_hf_max              =   6.1641157371133E-02
(PID.TID 0000.0001) %MON ke_max                       =   6.5232415486247E+02
(PID.TID 0000.0001) %MON ke_mean                      =   1.1714542045759E+02
(PID.TID 0000.0001) // =======================================================
(PID.TID 0000.0001) // End MONITOR dynamic field statistics
(PID.TID 0000.0001) // =======================================================
(PID.TID 0000.0001)   Seconds in section "ALL                [THE_MODEL_MAIN]":
(PID.TID 0000.0001)           User time:  21.4300008
(PID.TID 0000.0001)         System time:  0.219999999
(PID.TID 0000.0001)     Wall clock time:  21.730601
(PID.TID 0000.0001)          No. starts: 1
(PID.TID 0000.0001)           No. stops: 1
(PID.TID 0000.0001)   Seconds in section "INITIALISE_FIXED   [THE_MODEL_MAIN]":
(PID.TID 0000.0001)           User time:  0.600000005
(PID.TID 0000.0001)         System time:  0.0799999982
(PID.TID 0000.0001)     Wall clock time:  0.730751991
(PID.TID 0000.0001)          No. starts: 1
(PID.TID 0000.0001)           No. stops: 1
(PID.TID 0000.0001)   Seconds in section "THE_MAIN_LOOP      [THE_MODEL_MAIN]":
(PID.TID 0000.0001)           User time:  20.5700005
(PID.TID 0000.0001)         System time:  0.100000009
(PID.TID 0000.0001)     Wall clock time:  20.6969939
(PID.TID 0000.0001)          No. starts: 1
(PID.TID 0000.0001)           No. stops: 1
(PID.TID 0000.0001)   Seconds in section "INITIALISE_VARIA    [THE_MAIN_LOOP]":
(PID.TID 0000.0001)           User time:  0.100000024
(PID.TID 0000.0001)         System time:  0.0300000012
(PID.TID 0000.0001)     Wall clock time:  0.133472919
(PID.TID 0000.0001)          No. starts: 1
(PID.TID 0000.0001)           No. stops: 1
(PID.TID 0000.0001)   Seconds in section "WRITE_STATE         [THE_MAIN_LOOP]":
(PID.TID 0000.0001)           User time:  0.109999955
(PID.TID 0000.0001)         System time:  0.0199999958
(PID.TID 0000.0001)     Wall clock time:  0.130855083
(PID.TID 0000.0001)          No. starts: 1
(PID.TID 0000.0001)           No. stops: 1
(PID.TID 0000.0001)   Seconds in section "MONITOR             [THE_MAIN_LOOP]":
(PID.TID 0000.0001)           User time:  0.0500000119
(PID.TID 0000.0001)         System time:  0.
(PID.TID 0000.0001)     Wall clock time:  0.04213202
(PID.TID 0000.0001)          No. starts: 1
(PID.TID 0000.0001)           No. stops: 1
(PID.TID 0000.0001)   Seconds in section "MAIN LOOP           [THE_MAIN_LOOP]":
(PID.TID 0000.0001)           User time:  20.3100005
(PID.TID 0000.0001)         System time:  0.0500000119
(PID.TID 0000.0001)     Wall clock time:  20.390152
(PID.TID 0000.0001)          No. starts: 1
(PID.TID 0000.0001)           No. stops: 1
(PID.TID 0000.0001)   Seconds in section "FORWARD_STEP        [THE_MAIN_LOOP]":
(PID.TID 0000.0001)           User time:  20.3100005
(PID.TID 0000.0001)         System time:  0.0500000119
(PID.TID 0000.0001)     Wall clock time:  20.388635
(PID.TID 0000.0001)          No. starts: 20
(PID.TID 0000.0001)           No. stops: 20
(PID.TID 0000.0001)   Seconds in section "EXTERNAL_FIELDS_LOAD[THE_MAIN_LOOP]":
(PID.TID 0000.0001)           User time:  0.
(PID.TID 0000.0001)         System time:  0.
(PID.TID 0000.0001)     Wall clock time:  0.00144922733
(PID.TID 0000.0001)          No. starts: 20
(PID.TID 0000.0001)           No. stops: 20
(PID.TID 0000.0001)   Seconds in section "THERMODYNAMICS      [THE_MAIN_LOOP]":
(PID.TID 0000.0001)           User time:  4.57000315
(PID.TID 0000.0001)         System time:  0.
(PID.TID 0000.0001)     Wall clock time:  4.61430407
(PID.TID 0000.0001)          No. starts: 20
(PID.TID 0000.0001)           No. stops: 20
(PID.TID 0000.0001)   Seconds in section "DYNAMICS            [THE_MAIN_LOOP]":
(PID.TID 0000.0001)           User time:  5.9799993
(PID.TID 0000.0001)         System time:  0.
(PID.TID 0000.0001)     Wall clock time:  5.99621022
(PID.TID 0000.0001)          No. starts: 20
(PID.TID 0000.0001)           No. stops: 20
(PID.TID 0000.0001)   Seconds in section "SOLVE_FOR_PRESSURE  [THE_MAIN_LOOP]":
(PID.TID 0000.0001)           User time:  2.3100003
(PID.TID 0000.0001)         System time:  0.
(PID.TID 0000.0001)     Wall clock time:  2.29155684
(PID.TID 0000.0001)          No. starts: 20
(PID.TID 0000.0001)           No. stops: 20
(PID.TID 0000.0001)   Seconds in section "THE_CORRECTION_STEP [THE_MAIN_LOOP]":
(PID.TID 0000.0001)           User time:  5.99999774
(PID.TID 0000.0001)         System time:  0.0100000054
(PID.TID 0000.0001)     Wall clock time:  6.0408349
(PID.TID 0000.0001)          No. starts: 20
(PID.TID 0000.0001)           No. stops: 20
(PID.TID 0000.0001)   Seconds in section "BLOCKING_EXCHANGES  [THE_MAIN_LOOP]":
(PID.TID 0000.0001)           User time:  0.120002031
(PID.TID 0000.0001)         System time:  0.
(PID.TID 0000.0001)     Wall clock time:  0.124096751
(PID.TID 0000.0001)          No. starts: 20
(PID.TID 0000.0001)           No. stops: 20
(PID.TID 0000.0001)   Seconds in section "DO_THE_MODEL_IO     [THE_MAIN_LOOP]":
(PID.TID 0000.0001)           User time:  0.100000381
(PID.TID 0000.0001)         System time:  0.0400000066
(PID.TID 0000.0001)     Wall clock time:  0.142468929
(PID.TID 0000.0001)          No. starts: 20
(PID.TID 0000.0001)           No. stops: 20
(PID.TID 0000.0001)   Seconds in section "WRITE_CHECKPOINT    [THE_MAIN_LOOP]":
(PID.TID 0000.0001)           User time:  0.
(PID.TID 0000.0001)         System time:  0.
(PID.TID 0000.0001)     Wall clock time:  0.0014449358
(PID.TID 0000.0001)          No. starts: 20
(PID.TID 0000.0001)           No. stops: 20
(PID.TID 0000.0001)   Seconds in section "WRITE_CHECKPOINT   [THE_MODEL_MAIN]":
(PID.TID 0000.0001)           User time:  0.260000229
(PID.TID 0000.0001)         System time:  0.0399999917
(PID.TID 0000.0001)     Wall clock time:  0.302497983
(PID.TID 0000.0001)          No. starts: 1
(PID.TID 0000.0001)           No. stops: 1
(PID.TID 0000.0001) // ======================================================
(PID.TID 0000.0001) // Tile <-> Tile communication statistics
(PID.TID 0000.0001) // ======================================================
(PID.TID 0000.0001) // o Tile number: 000001
(PID.TID 0000.0001) //         No. X exchanges =              0
(PID.TID 0000.0001) //            Max. X spins =              0
(PID.TID 0000.0001) //            Min. X spins =     1000000000
(PID.TID 0000.0001) //          Total. X spins =              0
(PID.TID 0000.0001) //            Avg. X spins =       0.00E+00
(PID.TID 0000.0001) //         No. Y exchanges =              0
(PID.TID 0000.0001) //            Max. Y spins =              0
(PID.TID 0000.0001) //            Min. Y spins =     1000000000
(PID.TID 0000.0001) //          Total. Y spins =              0
(PID.TID 0000.0001) //            Avg. Y spins =       0.00E+00
(PID.TID 0000.0001) // o Tile number: 000002
(PID.TID 0000.0001) //         No. X exchanges =              0
(PID.TID 0000.0001) //            Max. X spins =              0
(PID.TID 0000.0001) //            Min. X spins =     1000000000
(PID.TID 0000.0001) //          Total. X spins =              0
(PID.TID 0000.0001) //            Avg. X spins =       0.00E+00
(PID.TID 0000.0001) //         No. Y exchanges =              0
(PID.TID 0000.0001) //            Max. Y spins =              0
(PID.TID 0000.0001) //            Min. Y spins =     1000000000
(PID.TID 0000.0001) //          Total. Y spins =              0
(PID.TID 0000.0001) //            Avg. Y spins =       0.00E+00
(PID.TID 0000.0001) // o Tile number: 000003
(PID.TID 0000.0001) //         No. X exchanges =              0
(PID.TID 0000.0001) //            Max. X spins =              0
(PID.TID 0000.0001) //            Min. X spins =     1000000000
(PID.TID 0000.0001) //          Total. X spins =              0
(PID.TID 0000.0001) //            Avg. X spins =       0.00E+00
(PID.TID 0000.0001) //         No. Y exchanges =              0
(PID.TID 0000.0001) //            Max. Y spins =              0
(PID.TID 0000.0001) //            Min. Y spins =     1000000000
(PID.TID 0000.0001) //          Total. Y spins =              0
(PID.TID 0000.0001) //            Avg. Y spins =       0.00E+00
(PID.TID 0000.0001) // o Tile number: 000004
(PID.TID 0000.0001) //         No. X exchanges =              0
(PID.TID 0000.0001) //            Max. X spins =              0
(PID.TID 0000.0001) //            Min. X spins =     1000000000
(PID.TID 0000.0001) //          Total. X spins =              0
(PID.TID 0000.0001) //            Avg. X spins =       0.00E+00
(PID.TID 0000.0001) //         No. Y exchanges =              0
(PID.TID 0000.0001) //            Max. Y spins =              0
(PID.TID 0000.0001) //            Min. Y spins =     1000000000
(PID.TID 0000.0001) //          Total. Y spins =              0
(PID.TID 0000.0001) //            Avg. Y spins =       0.00E+00
(PID.TID 0000.0001) // o Tile number: 000005
(PID.TID 0000.0001) //         No. X exchanges =              0
(PID.TID 0000.0001) //            Max. X spins =              0
(PID.TID 0000.0001) //            Min. X spins =     1000000000
(PID.TID 0000.0001) //          Total. X spins =              0
(PID.TID 0000.0001) //            Avg. X spins =       0.00E+00
(PID.TID 0000.0001) //         No. Y exchanges =              0
(PID.TID 0000.0001) //            Max. Y spins =              0
(PID.TID 0000.0001) //            Min. Y spins =     1000000000
(PID.TID 0000.0001) //          Total. Y spins =              0
(PID.TID 0000.0001) //            Avg. Y spins =       0.00E+00
(PID.TID 0000.0001) // o Tile number: 000006
(PID.TID 0000.0001) //         No. X exchanges =              0
(PID.TID 0000.0001) //            Max. X spins =              0
(PID.TID 0000.0001) //            Min. X spins =     1000000000
(PID.TID 0000.0001) //          Total. X spins =              0
(PID.TID 0000.0001) //            Avg. X spins =       0.00E+00
(PID.TID 0000.0001) //         No. Y exchanges =              0
(PID.TID 0000.0001) //            Max. Y spins =              0
(PID.TID 0000.0001) //            Min. Y spins =     1000000000
(PID.TID 0000.0001) //          Total. Y spins =              0
(PID.TID 0000.0001) //            Avg. Y spins =       0.00E+00
(PID.TID 0000.0001) // o Thread number: 000001
(PID.TID 0000.0001) //            No. barriers =          10286
(PID.TID 0000.0001) //      Max. barrier spins =              1
(PID.TID 0000.0001) //      Min. barrier spins =              1
(PID.TID 0000.0001) //     Total barrier spins =          10286
(PID.TID 0000.0001) //      Avg. barrier spins =       1.00E+00
