(PID.TID 0000.0001) 
(PID.TID 0000.0001) // ======================================================
(PID.TID 0000.0001) //                      MITgcm UV
(PID.TID 0000.0001) //                      =========
(PID.TID 0000.0001) // ======================================================
(PID.TID 0000.0001) // execution environment starting up...
(PID.TID 0000.0001) 
(PID.TID 0000.0001) // MITgcmUV version:  checkpoint61e
(PID.TID 0000.0001) // Build user:        jmc
(PID.TID 0000.0001) // Build host:        faulks
(PID.TID 0000.0001) // Build date:        Mon Oct 27 16:01:29 EDT 2008
(PID.TID 0000.0001) 
(PID.TID 0000.0001) // =======================================================
(PID.TID 0000.0001) // Execution Environment parameter file "eedata"
(PID.TID 0000.0001) // =======================================================
(PID.TID 0000.0001) ># Example "eedata" file
(PID.TID 0000.0001) ># Lines beginning "#" are comments
(PID.TID 0000.0001) ># nTx - No. threads per process in X
(PID.TID 0000.0001) ># nTy - No. threads per process in Y
(PID.TID 0000.0001) > &EEPARMS
(PID.TID 0000.0001) > useCubedSphereExchange=.TRUE.,
(PID.TID 0000.0001) > &
(PID.TID 0000.0001) ># Note: Some systems use & as the
(PID.TID 0000.0001) ># namelist terminator. Other systems
(PID.TID 0000.0001) ># use a / character (as shown here).
(PID.TID 0000.0001) 
(PID.TID 0000.0001) // =======================================================
(PID.TID 0000.0001) // Computational Grid Specification ( see files "SIZE.h" )
(PID.TID 0000.0001) //                                  ( and "eedata"       )
(PID.TID 0000.0001) // =======================================================
(PID.TID 0000.0001)      nPx =    1 ; /* No. processes in X */
(PID.TID 0000.0001)      nPy =    1 ; /* No. processes in Y */
(PID.TID 0000.0001)      nSx =    6 ; /* No. tiles in X per process */
(PID.TID 0000.0001)      nSy =    1 ; /* No. tiles in Y per process */
(PID.TID 0000.0001)      sNx =   32 ; /* Tile size in X */
(PID.TID 0000.0001)      sNy =   32 ; /* Tile size in Y */
(PID.TID 0000.0001)      OLx =    2 ; /* Tile overlap distance in X */
(PID.TID 0000.0001)      OLy =    2 ; /* Tile overlap distance in Y */
(PID.TID 0000.0001)      nTx =    1 ; /* No. threads in X per process */
(PID.TID 0000.0001)      nTy =    1 ; /* No. threads in Y per process */
(PID.TID 0000.0001)       Nr =    1 ; /* No. levels in the vertical   */
(PID.TID 0000.0001)       nX =  192 ; /* Total domain size in X ( = nPx*nSx*sNx ) */
(PID.TID 0000.0001)       nY =   32 ; /* Total domain size in Y ( = nPy*nSy*sNy ) */
(PID.TID 0000.0001)   nTiles =    6 ; /* Total no. tiles per process ( = nSx*nSy ) */
(PID.TID 0000.0001)   nProcs =    1 ; /* Total no. processes ( = nPx*nPy ) */
(PID.TID 0000.0001) nThreads =    1 ; /* Total no. threads per process ( = nTx*nTy ) */
(PID.TID 0000.0001) usingMPI =    F ; /* Flag used to control whether MPI is in use */
(PID.TID 0000.0001)                   /*  note: To execute a program with MPI calls */
(PID.TID 0000.0001)                   /*  it must be launched appropriately e.g     */
(PID.TID 0000.0001)                   /*  "mpirun -np 64 ......"                    */
(PID.TID 0000.0001) useCoupler=   F ; /* Flag used to control communications with */
(PID.TID 0000.0001)                   /*  other model components, through a coupler */
(PID.TID 0000.0001) 
(PID.TID 0000.0001) // ======================================================
(PID.TID 0000.0001) // Mapping of tiles to threads
(PID.TID 0000.0001) // ======================================================
(PID.TID 0000.0001) // -o- Thread   1, tiles (   1:   6,   1:   1)
(PID.TID 0000.0001) 
(PID.TID 0000.0001) // ======================================================
(PID.TID 0000.0001) // Tile <-> Tile connectvity table
(PID.TID 0000.0001) // ======================================================
(PID.TID 0000.0001) // Tile number: 000001 (process no. = 000001)
(PID.TID 0000.0001) //        WEST: Tile = 000006, Process = 000001, Comm = put
(PID.TID 0000.0001) //                bi = 000006, bj = 000001
(PID.TID 0000.0001) //        EAST: Tile = 000002, Process = 000001, Comm = put
(PID.TID 0000.0001) //                bi = 000002, bj = 000001
(PID.TID 0000.0001) //       SOUTH: Tile = 000001, Process = 000001, Comm = put
(PID.TID 0000.0001) //                bi = 000001, bj = 000001
(PID.TID 0000.0001) //       NORTH: Tile = 000001, Process = 000001, Comm = put
(PID.TID 0000.0001) //                bi = 000001, bj = 000001
(PID.TID 0000.0001) // Tile number: 000002 (process no. = 000001)
(PID.TID 0000.0001) //        WEST: Tile = 000001, Process = 000001, Comm = put
(PID.TID 0000.0001) //                bi = 000001, bj = 000001
(PID.TID 0000.0001) //        EAST: Tile = 000003, Process = 000001, Comm = put
(PID.TID 0000.0001) //                bi = 000003, bj = 000001
(PID.TID 0000.0001) //       SOUTH: Tile = 000002, Process = 000001, Comm = put
(PID.TID 0000.0001) //                bi = 000002, bj = 000001
(PID.TID 0000.0001) //       NORTH: Tile = 000002, Process = 000001, Comm = put
(PID.TID 0000.0001) //                bi = 000002, bj = 000001
(PID.TID 0000.0001) // Tile number: 000003 (process no. = 000001)
(PID.TID 0000.0001) //        WEST: Tile = 000002, Process = 000001, Comm = put
(PID.TID 0000.0001) //                bi = 000002, bj = 000001
(PID.TID 0000.0001) //        EAST: Tile = 000004, Process = 000001, Comm = put
(PID.TID 0000.0001) //                bi = 000004, bj = 000001
(PID.TID 0000.0001) //       SOUTH: Tile = 000003, Process = 000001, Comm = put
(PID.TID 0000.0001) //                bi = 000003, bj = 000001
(PID.TID 0000.0001) //       NORTH: Tile = 000003, Process = 000001, Comm = put
(PID.TID 0000.0001) //                bi = 000003, bj = 000001
(PID.TID 0000.0001) // Tile number: 000004 (process no. = 000001)
(PID.TID 0000.0001) //        WEST: Tile = 000003, Process = 000001, Comm = put
(PID.TID 0000.0001) //                bi = 000003, bj = 000001
(PID.TID 0000.0001) //        EAST: Tile = 000005, Process = 000001, Comm = put
(PID.TID 0000.0001) //                bi = 000005, bj = 000001
(PID.TID 0000.0001) //       SOUTH: Tile = 000004, Process = 000001, Comm = put
(PID.TID 0000.0001) //                bi = 000004, bj = 000001
(PID.TID 0000.0001) //       NORTH: Tile = 000004, Process = 000001, Comm = put
(PID.TID 0000.0001) //                bi = 000004, bj = 000001
(PID.TID 0000.0001) // Tile number: 000005 (process no. = 000001)
(PID.TID 0000.0001) //        WEST: Tile = 000004, Process = 000001, Comm = put
(PID.TID 0000.0001) //                bi = 000004, bj = 000001
(PID.TID 0000.0001) //        EAST: Tile = 000006, Process = 000001, Comm = put
(PID.TID 0000.0001) //                bi = 000006, bj = 000001
(PID.TID 0000.0001) //       SOUTH: Tile = 000005, Process = 000001, Comm = put
(PID.TID 0000.0001) //                bi = 000005, bj = 000001
(PID.TID 0000.0001) //       NORTH: Tile = 000005, Process = 000001, Comm = put
(PID.TID 0000.0001) //                bi = 000005, bj = 000001
(PID.TID 0000.0001) // Tile number: 000006 (process no. = 000001)
(PID.TID 0000.0001) //        WEST: Tile = 000005, Process = 000001, Comm = put
(PID.TID 0000.0001) //                bi = 000005, bj = 000001
(PID.TID 0000.0001) //        EAST: Tile = 000001, Process = 000001, Comm = put
(PID.TID 0000.0001) //                bi = 000001, bj = 000001
(PID.TID 0000.0001) //       SOUTH: Tile = 000006, Process = 000001, Comm = put
(PID.TID 0000.0001) //                bi = 000006, bj = 000001
(PID.TID 0000.0001) //       NORTH: Tile = 000006, Process = 000001, Comm = put
(PID.TID 0000.0001) //                bi = 000006, bj = 000001
(PID.TID 0000.0001) 
(PID.TID 0000.0001) ===== W2 TILE TOPLOGY =====
(PID.TID 0000.0001)  TILE:    1
(PID.TID 0000.0001)       NEIGHBOUR    1 = TILE    3 Comm = PUT ( PROC =    1)
(PID.TID 0000.0001)       NEIGHBOUR    2 = TILE    6 Comm = PUT ( PROC =    1)
(PID.TID 0000.0001)       NEIGHBOUR    3 = TILE    2 Comm = PUT ( PROC =    1)
(PID.TID 0000.0001)       NEIGHBOUR    4 = TILE    5 Comm = PUT ( PROC =    1)
(PID.TID 0000.0001)  TILE:    2
(PID.TID 0000.0001)       NEIGHBOUR    1 = TILE    3 Comm = PUT ( PROC =    1)
(PID.TID 0000.0001)       NEIGHBOUR    2 = TILE    6 Comm = PUT ( PROC =    1)
(PID.TID 0000.0001)       NEIGHBOUR    3 = TILE    4 Comm = PUT ( PROC =    1)
(PID.TID 0000.0001)       NEIGHBOUR    4 = TILE    1 Comm = PUT ( PROC =    1)
(PID.TID 0000.0001)  TILE:    3
(PID.TID 0000.0001)       NEIGHBOUR    1 = TILE    5 Comm = PUT ( PROC =    1)
(PID.TID 0000.0001)       NEIGHBOUR    2 = TILE    2 Comm = PUT ( PROC =    1)
(PID.TID 0000.0001)       NEIGHBOUR    3 = TILE    4 Comm = PUT ( PROC =    1)
(PID.TID 0000.0001)       NEIGHBOUR    4 = TILE    1 Comm = PUT ( PROC =    1)
(PID.TID 0000.0001)  TILE:    4
(PID.TID 0000.0001)       NEIGHBOUR    1 = TILE    5 Comm = PUT ( PROC =    1)
(PID.TID 0000.0001)       NEIGHBOUR    2 = TILE    2 Comm = PUT ( PROC =    1)
(PID.TID 0000.0001)       NEIGHBOUR    3 = TILE    6 Comm = PUT ( PROC =    1)
(PID.TID 0000.0001)       NEIGHBOUR    4 = TILE    3 Comm = PUT ( PROC =    1)
(PID.TID 0000.0001)  TILE:    5
(PID.TID 0000.0001)       NEIGHBOUR    1 = TILE    1 Comm = PUT ( PROC =    1)
(PID.TID 0000.0001)       NEIGHBOUR    2 = TILE    4 Comm = PUT ( PROC =    1)
(PID.TID 0000.0001)       NEIGHBOUR    3 = TILE    6 Comm = PUT ( PROC =    1)
(PID.TID 0000.0001)       NEIGHBOUR    4 = TILE    3 Comm = PUT ( PROC =    1)
(PID.TID 0000.0001)  TILE:    6
(PID.TID 0000.0001)       NEIGHBOUR    1 = TILE    1 Comm = PUT ( PROC =    1)
(PID.TID 0000.0001)       NEIGHBOUR    2 = TILE    4 Comm = PUT ( PROC =    1)
(PID.TID 0000.0001)       NEIGHBOUR    3 = TILE    2 Comm = PUT ( PROC =    1)
(PID.TID 0000.0001)       NEIGHBOUR    4 = TILE    5 Comm = PUT ( PROC =    1)
(PID.TID 0000.0001) Tile     1 (pr=   1) sends pts i=  34:  -1, j=  31:  32
(PID.TID 0000.0001)                         to pts i=  -1:   0, j=  -1:  34 in tile      3 (pr=   1)
(PID.TID 0000.0001) Tile     1 (pr=   1) sends pts i=  -1:  34, j=   1:   2
(PID.TID 0000.0001)                         to pts i=  -1:  34, j=  33:  34 in tile      6 (pr=   1)
(PID.TID 0000.0001) Tile     1 (pr=   1) sends pts i=  31:  32, j=  -1:  34
(PID.TID 0000.0001)                         to pts i=  -1:   0, j=  -1:  34 in tile      2 (pr=   1)
(PID.TID 0000.0001) Tile     1 (pr=   1) sends pts i=   1:   2, j=  34:  -1
(PID.TID 0000.0001)                         to pts i=  -1:  34, j=  33:  34 in tile      5 (pr=   1)
(PID.TID 0000.0001) Tile     2 (pr=   1) sends pts i=  -1:  34, j=  31:  32
(PID.TID 0000.0001)                         to pts i=  -1:  34, j=  -1:   0 in tile      3 (pr=   1)
(PID.TID 0000.0001) Tile     2 (pr=   1) sends pts i=  34:  -1, j=   1:   2
(PID.TID 0000.0001)                         to pts i=  33:  34, j=  -1:  34 in tile      6 (pr=   1)
(PID.TID 0000.0001) Tile     2 (pr=   1) sends pts i=  31:  32, j=  34:  -1
(PID.TID 0000.0001)                         to pts i=  -1:  34, j=  -1:   0 in tile      4 (pr=   1)
(PID.TID 0000.0001) Tile     2 (pr=   1) sends pts i=   1:   2, j=  -1:  34
(PID.TID 0000.0001)                         to pts i=  33:  34, j=  -1:  34 in tile      1 (pr=   1)
(PID.TID 0000.0001) Tile     3 (pr=   1) sends pts i=  34:  -1, j=  31:  32
(PID.TID 0000.0001)                         to pts i=  -1:   0, j=  -1:  34 in tile      5 (pr=   1)
(PID.TID 0000.0001) Tile     3 (pr=   1) sends pts i=  -1:  34, j=   1:   2
(PID.TID 0000.0001)                         to pts i=  -1:  34, j=  33:  34 in tile      2 (pr=   1)
(PID.TID 0000.0001) Tile     3 (pr=   1) sends pts i=  31:  32, j=  -1:  34
(PID.TID 0000.0001)                         to pts i=  -1:   0, j=  -1:  34 in tile      4 (pr=   1)
(PID.TID 0000.0001) Tile     3 (pr=   1) sends pts i=   1:   2, j=  34:  -1
(PID.TID 0000.0001)                         to pts i=  -1:  34, j=  33:  34 in tile      1 (pr=   1)
(PID.TID 0000.0001) Tile     4 (pr=   1) sends pts i=  -1:  34, j=  31:  32
(PID.TID 0000.0001)                         to pts i=  -1:  34, j=  -1:   0 in tile      5 (pr=   1)
(PID.TID 0000.0001) Tile     4 (pr=   1) sends pts i=  34:  -1, j=   1:   2
(PID.TID 0000.0001)                         to pts i=  33:  34, j=  -1:  34 in tile      2 (pr=   1)
(PID.TID 0000.0001) Tile     4 (pr=   1) sends pts i=  31:  32, j=  34:  -1
(PID.TID 0000.0001)                         to pts i=  -1:  34, j=  -1:   0 in tile      6 (pr=   1)
(PID.TID 0000.0001) Tile     4 (pr=   1) sends pts i=   1:   2, j=  -1:  34
(PID.TID 0000.0001)                         to pts i=  33:  34, j=  -1:  34 in tile      3 (pr=   1)
(PID.TID 0000.0001) Tile     5 (pr=   1) sends pts i=  34:  -1, j=  31:  32
(PID.TID 0000.0001)                         to pts i=  -1:   0, j=  -1:  34 in tile      1 (pr=   1)
(PID.TID 0000.0001) Tile     5 (pr=   1) sends pts i=  -1:  34, j=   1:   2
(PID.TID 0000.0001)                         to pts i=  -1:  34, j=  33:  34 in tile      4 (pr=   1)
(PID.TID 0000.0001) Tile     5 (pr=   1) sends pts i=  31:  32, j=  -1:  34
(PID.TID 0000.0001)                         to pts i=  -1:   0, j=  -1:  34 in tile      6 (pr=   1)
(PID.TID 0000.0001) Tile     5 (pr=   1) sends pts i=   1:   2, j=  34:  -1
(PID.TID 0000.0001)                         to pts i=  -1:  34, j=  33:  34 in tile      3 (pr=   1)
(PID.TID 0000.0001) Tile     6 (pr=   1) sends pts i=  -1:  34, j=  31:  32
(PID.TID 0000.0001)                         to pts i=  -1:  34, j=  -1:   0 in tile      1 (pr=   1)
(PID.TID 0000.0001) Tile     6 (pr=   1) sends pts i=  34:  -1, j=   1:   2
(PID.TID 0000.0001)                         to pts i=  33:  34, j=  -1:  34 in tile      4 (pr=   1)
(PID.TID 0000.0001) Tile     6 (pr=   1) sends pts i=  31:  32, j=  34:  -1
(PID.TID 0000.0001)                         to pts i=  -1:  34, j=  -1:   0 in tile      2 (pr=   1)
(PID.TID 0000.0001) Tile     6 (pr=   1) sends pts i=   1:   2, j=  -1:  34
(PID.TID 0000.0001)                         to pts i=  33:  34, j=  -1:  34 in tile      5 (pr=   1)
(PID.TID 0000.0001) Tile     1 (pr=   1) recv pts i=  -1:  34, j=  33:  34 from tile     3 (pr=   1)
(PID.TID 0000.0001) Tile     1 (pr=   1) recv pts i=  -1:  34, j=  -1:   0 from tile     6 (pr=   1)
(PID.TID 0000.0001) Tile     1 (pr=   1) recv pts i=  33:  34, j=  -1:  34 from tile     2 (pr=   1)
(PID.TID 0000.0001) Tile     1 (pr=   1) recv pts i=  -1:   0, j=  -1:  34 from tile     5 (pr=   1)
(PID.TID 0000.0001) Tile     2 (pr=   1) recv pts i=  -1:  34, j=  33:  34 from tile     3 (pr=   1)
(PID.TID 0000.0001) Tile     2 (pr=   1) recv pts i=  -1:  34, j=  -1:   0 from tile     6 (pr=   1)
(PID.TID 0000.0001) Tile     2 (pr=   1) recv pts i=  33:  34, j=  -1:  34 from tile     4 (pr=   1)
(PID.TID 0000.0001) Tile     2 (pr=   1) recv pts i=  -1:   0, j=  -1:  34 from tile     1 (pr=   1)
(PID.TID 0000.0001) Tile     3 (pr=   1) recv pts i=  -1:  34, j=  33:  34 from tile     5 (pr=   1)
(PID.TID 0000.0001) Tile     3 (pr=   1) recv pts i=  -1:  34, j=  -1:   0 from tile     2 (pr=   1)
(PID.TID 0000.0001) Tile     3 (pr=   1) recv pts i=  33:  34, j=  -1:  34 from tile     4 (pr=   1)
(PID.TID 0000.0001) Tile     3 (pr=   1) recv pts i=  -1:   0, j=  -1:  34 from tile     1 (pr=   1)
(PID.TID 0000.0001) Tile     4 (pr=   1) recv pts i=  -1:  34, j=  33:  34 from tile     5 (pr=   1)
(PID.TID 0000.0001) Tile     4 (pr=   1) recv pts i=  -1:  34, j=  -1:   0 from tile     2 (pr=   1)
(PID.TID 0000.0001) Tile     4 (pr=   1) recv pts i=  33:  34, j=  -1:  34 from tile     6 (pr=   1)
(PID.TID 0000.0001) Tile     4 (pr=   1) recv pts i=  -1:   0, j=  -1:  34 from tile     3 (pr=   1)
(PID.TID 0000.0001) Tile     5 (pr=   1) recv pts i=  -1:  34, j=  33:  34 from tile     1 (pr=   1)
(PID.TID 0000.0001) Tile     5 (pr=   1) recv pts i=  -1:  34, j=  -1:   0 from tile     4 (pr=   1)
(PID.TID 0000.0001) Tile     5 (pr=   1) recv pts i=  33:  34, j=  -1:  34 from tile     6 (pr=   1)
(PID.TID 0000.0001) Tile     5 (pr=   1) recv pts i=  -1:   0, j=  -1:  34 from tile     3 (pr=   1)
(PID.TID 0000.0001) Tile     6 (pr=   1) recv pts i=  -1:  34, j=  33:  34 from tile     1 (pr=   1)
(PID.TID 0000.0001) Tile     6 (pr=   1) recv pts i=  -1:  34, j=  -1:   0 from tile     4 (pr=   1)
(PID.TID 0000.0001) Tile     6 (pr=   1) recv pts i=  33:  34, j=  -1:  34 from tile     2 (pr=   1)
(PID.TID 0000.0001) Tile     6 (pr=   1) recv pts i=  -1:   0, j=  -1:  34 from tile     5 (pr=   1)
(PID.TID 0000.0001) // =======================================================
(PID.TID 0000.0001) // Model parameter file "data"
(PID.TID 0000.0001) // =======================================================
(PID.TID 0000.0001) ># ====================
(PID.TID 0000.0001) ># | Model parameters |
(PID.TID 0000.0001) ># ====================
(PID.TID 0000.0001) >#
(PID.TID 0000.0001) ># Continuous equation parameters
(PID.TID 0000.0001) > &PARM01
(PID.TID 0000.0001) > tRef=300.,
(PID.TID 0000.0001) > sRef=0.,
(PID.TID 0000.0001) > viscAr=0.,
(PID.TID 0000.0001) > viscAh=0.,
(PID.TID 0000.0001) > viscA4=0.,
(PID.TID 0000.0001) > no_slip_sides=.FALSE.,
(PID.TID 0000.0001) > no_slip_bottom=.FALSE.,
(PID.TID 0000.0001) > diffKrS=0.,
(PID.TID 0000.0001) > diffKhS=0.,
(PID.TID 0000.0001) > diffK4S=0.,
(PID.TID 0000.0001) > buoyancyRelation='ATMOSPHERIC',
(PID.TID 0000.0001) > eosType='IDEALGAS',
(PID.TID 0000.0001) > rotationPeriod=86400.,
(PID.TID 0000.0001) > gravity=9.81,
(PID.TID 0000.0001) > rhonil=1.0,
(PID.TID 0000.0001) > rhoConst=1.0,
(PID.TID 0000.0001) > rigidLid=.FALSE.,
(PID.TID 0000.0001) > implicitFreeSurface=.TRUE.,
(PID.TID 0000.0001) > nonHydrostatic=.FALSE.,
(PID.TID 0000.0001) > readBinaryPrec=64,
(PID.TID 0000.0001) > writeBinaryPrec=64,
(PID.TID 0000.0001) > tempStepping=.FALSE.,
(PID.TID 0000.0001) > saltStepping=.TRUE.,
(PID.TID 0000.0001) > vectorInvariantMomentum=.TRUE.,
(PID.TID 0000.0001) > &
(PID.TID 0000.0001) >
(PID.TID 0000.0001) ># Elliptic solver parameters
(PID.TID 0000.0001) > &PARM02
(PID.TID 0000.0001) > cg2dMaxIters=600,
(PID.TID 0000.0001) > cg2dTargetResidual=1.E-12,
(PID.TID 0000.0001) > &
(PID.TID 0000.0001) >
(PID.TID 0000.0001) ># Time stepping parameters
(PID.TID 0000.0001) > &PARM03
(PID.TID 0000.0001) > niter0=0,
(PID.TID 0000.0001) >#nTimeSteps=1728,
(PID.TID 0000.0001) > nTimeSteps=20,
(PID.TID 0000.0001) > abEps=0.1,
(PID.TID 0000.0001) > deltaT=1200.0,
(PID.TID 0000.0001) > cAdjFreq=0.,
(PID.TID 0000.0001) > pChkptFreq=0.0,
(PID.TID 0000.0001) > chkptFreq=0.0,
(PID.TID 0000.0001) > dumpFreq=86400.0,
(PID.TID 0000.0001) >#diagFreq=1.0,
(PID.TID 0000.0001) >#monitorFreq=21600.,
(PID.TID 0000.0001) > monitorFreq=1.,
(PID.TID 0000.0001) > &
(PID.TID 0000.0001) >
(PID.TID 0000.0001) ># Gridding parameters
(PID.TID 0000.0001) > &PARM04
(PID.TID 0000.0001) > usingCurvilinearGrid=.TRUE.,
(PID.TID 0000.0001) > delR=1.E5,
(PID.TID 0000.0001) > Ro_SeaLevel=1.E5,
(PID.TID 0000.0001) > &
(PID.TID 0000.0001) >
(PID.TID 0000.0001) ># Input datasets
(PID.TID 0000.0001) > &PARM05
(PID.TID 0000.0001) >#uVelInitFile='U.init',
(PID.TID 0000.0001) >#vVelInitFile='V.init',
(PID.TID 0000.0001) >#pSurfInitFile='Eta.init',
(PID.TID 0000.0001) > hydrogSaltFile='S.init',
(PID.TID 0000.0001) > &
(PID.TID 0000.0001) 
(PID.TID 0000.0001) S/R INI_PARMS ; starts to read PARM01
(PID.TID 0000.0001) S/R INI_PARMS ; read PARM01 : OK
(PID.TID 0000.0001) S/R INI_PARMS ; starts to read PARM02
(PID.TID 0000.0001) S/R INI_PARMS ; read PARM02 : OK
(PID.TID 0000.0001) S/R INI_PARMS ; starts to read PARM03
(PID.TID 0000.0001) S/R INI_PARMS ; read PARM03 : OK
(PID.TID 0000.0001) S/R INI_PARMS ; starts to read PARM04
(PID.TID 0000.0001) S/R INI_PARMS ; read PARM04 : OK
(PID.TID 0000.0001) S/R INI_PARMS ; starts to read PARM05
(PID.TID 0000.0001) S/R INI_PARMS ; read PARM05 : OK
(PID.TID 0000.0001)  PACKAGES_BOOT: opening data.pkg
(PID.TID 0000.0001)  OPEN_COPY_DATA_FILE: opening file data.pkg
(PID.TID 0000.0001) // =======================================================
(PID.TID 0000.0001) // Parameter file "data.pkg"
(PID.TID 0000.0001) // =======================================================
(PID.TID 0000.0001) ># Packages
(PID.TID 0000.0001) > &PACKAGES
(PID.TID 0000.0001) > useDiagnostics=.TRUE.,
(PID.TID 0000.0001) > &
(PID.TID 0000.0001) 
(PID.TID 0000.0001)  PACKAGES_BOOT: finished reading data.pkg
(PID.TID 0000.0001)  DIAGNOSTICS_READPARMS: opening data.diagnostics
(PID.TID 0000.0001)  OPEN_COPY_DATA_FILE: opening file data.diagnostics
(PID.TID 0000.0001) // =======================================================
(PID.TID 0000.0001) // Parameter file "data.diagnostics"
(PID.TID 0000.0001) // =======================================================
(PID.TID 0000.0001) ># Diagnostic Package Choices
(PID.TID 0000.0001) >#-----------------
(PID.TID 0000.0001) >#  dumpAtLast (logical): always write output at the end of simulation (default=F)
(PID.TID 0000.0001) >#  diag_mnc   (logical): write to NetCDF files (default=useMNC)
(PID.TID 0000.0001) >#--for each output-stream:
(PID.TID 0000.0001) >#  filename(n) : prefix of the output file name (only 8.c long) for outp.stream n
(PID.TID 0000.0001) >#  frequency(n):< 0 : write snap-shot output every |frequency| seconds
(PID.TID 0000.0001) >#               > 0 : write time-average output every frequency seconds
(PID.TID 0000.0001) >#  timePhase(n)     : write at time = timePhase + multiple of |frequency|
(PID.TID 0000.0001) >#    averagingFreq  : frequency (in s) for periodic averaging interval
(PID.TID 0000.0001) >#    averagingPhase : phase     (in s) for periodic averaging interval
(PID.TID 0000.0001) >#    repeatCycle    : number of averaging intervals in 1 cycle
(PID.TID 0000.0001) >#  levels(:,n) : list of levels to write to file (Notes: declared as REAL)
(PID.TID 0000.0001) >#                when this entry is missing, select all common levels of this list
(PID.TID 0000.0001) >#  fields(:,n) : list of diagnostics fields (8.c) (see "available_diagnostics.log"
(PID.TID 0000.0001) >#                file for the list of all available diag. in this particular config)
(PID.TID 0000.0001) >#  mising_value     : missing value for floats   in output
(PID.TID 0000.0001) >#  mising_value_int : missing value for integers in output
(PID.TID 0000.0001) >#  fileflags (8c string) : specific code for output file
(PID.TID 0000.0001) >#-----------------
(PID.TID 0000.0001) > &DIAGNOSTICS_LIST
(PID.TID 0000.0001) ># diag_mnc     = .FALSE.,
(PID.TID 0000.0001) >  frequency(1) = 21600.,
(PID.TID 0000.0001) ># timePhase(1) = 0.,
(PID.TID 0000.0001) >   filename(1) = 's_Diag',
(PID.TID 0000.0001) >   fields(1,1) = 'SALT    ','SALTSQ  ',
(PID.TID 0000.0001) > &
(PID.TID 0000.0001) >
(PID.TID 0000.0001) ># Parameter for Diagnostics of per level statistics:
(PID.TID 0000.0001) >#-----------------
(PID.TID 0000.0001) >#  diagSt_mnc (logical): write stat-diags to NetCDF files (default=diag_mnc)
(PID.TID 0000.0001) >#  diagSt_regMaskFile : file containing the region-mask to read-in
(PID.TID 0000.0001) >#  nSetRegMskFile   : number of region-mask sets within the region-mask file
(PID.TID 0000.0001) >#  set_regMask(i)   : region-mask set-index that identifies the region "i"
(PID.TID 0000.0001) >#  val_regMask(i)   : region "i" identificator value in the region mask
(PID.TID 0000.0001) >#--for each output-stream:
(PID.TID 0000.0001) >#  stat_fname(n) : prefix of the output file name (only 8.c long) for outp.stream n
(PID.TID 0000.0001) >#  stat_freq(n):< 0 : write snap-shot output every |stat_freq| seconds
(PID.TID 0000.0001) >#               > 0 : write time-average output every stat_freq seconds
(PID.TID 0000.0001) >#  stat_phase(n)    : write at time = stat_phase + multiple of |stat_freq|
(PID.TID 0000.0001) >#  stat_region(:,n) : list of "regions" (default: 1 region only=global)
(PID.TID 0000.0001) >#  stat_fields(:,n) : list of diagnostics fields (8.c) (see "available_diagnostics.log"
(PID.TID 0000.0001) >#                 file for the list of all available diag. in this particular config)
(PID.TID 0000.0001) >#-----------------
(PID.TID 0000.0001) > &DIAG_STATIS_PARMS
(PID.TID 0000.0001) ># an example just to check the agreement with MONITOR output:
(PID.TID 0000.0001) > stat_fields(1,1)= 'ETAN    ','momKE   ',
(PID.TID 0000.0001) >#                  'DETADT2 ',
(PID.TID 0000.0001) >                   'SALT    ','SALTSQ  ',
(PID.TID 0000.0001) >    stat_fname(1)= 'dynStDiag',
(PID.TID 0000.0001) >     stat_freq(1)= -21600.,
(PID.TID 0000.0001) >    stat_phase(1)= 0.,
(PID.TID 0000.0001) > &
(PID.TID 0000.0001) >
(PID.TID 0000.0001) 
(PID.TID 0000.0001) S/R DIAGNOSTICS_READPARMS, read namelist "diagnostics_list": start
(PID.TID 0000.0001) S/R DIAGNOSTICS_READPARMS, read namelist "diagnostics_list": OK
(PID.TID 0000.0001) S/R DIAGNOSTICS_READPARMS, read namelist "DIAG_STATIS_PARMS": start
(PID.TID 0000.0001) S/R DIAGNOSTICS_READPARMS, read namelist "DIAG_STATIS_PARMS": OK
(PID.TID 0000.0001) -----------------------------------------------------
(PID.TID 0000.0001)  DIAGNOSTICS_READPARMS: active diagnostics summary:
(PID.TID 0000.0001) -----------------------------------------------------
(PID.TID 0000.0001) Creating Output Stream: s_Diag
(PID.TID 0000.0001) Output Frequency:      21600.000000 ; Phase:           0.000000
(PID.TID 0000.0001)  Averaging Freq.:      21600.000000 , Phase:           0.000000 , Cycle:   1
(PID.TID 0000.0001)  missing value:  1.234567000000E+05 ; for integers:   123456789
(PID.TID 0000.0001)  Levels:    will be set later
(PID.TID 0000.0001)  Fields:    SALT     SALTSQ
(PID.TID 0000.0001) -----------------------------------------------------
(PID.TID 0000.0001)  DIAGNOSTICS_READPARMS: statistics diags. summary:
(PID.TID 0000.0001) Creating Stats. Output Stream: dynStDiag
(PID.TID 0000.0001) Output Frequency:     -21600.000000 ; Phase:           0.000000
(PID.TID 0000.0001)  Regions:   0
(PID.TID 0000.0001)  Fields:    ETAN     momKE    SALT     SALTSQ
(PID.TID 0000.0001) -----------------------------------------------------
(PID.TID 0000.0001) 
(PID.TID 0000.0001) SET_PARMS: done
(PID.TID 0000.0001) Enter INI_VERTICAL_GRID: setInterFDr=    T ; setCenterDr=    F
(PID.TID 0000.0001) tile:   1 ; Read from file tile001.mitgrid
(PID.TID 0000.0001)   => xC yC dxF dyF rA xG yG dxV dyU rAz dxC dyC rAw rAs dxG dyG
(PID.TID 0000.0001) tile:   2 ; Read from file tile002.mitgrid
(PID.TID 0000.0001)   => xC yC dxF dyF rA xG yG dxV dyU rAz dxC dyC rAw rAs dxG dyG
(PID.TID 0000.0001) tile:   3 ; Read from file tile003.mitgrid
(PID.TID 0000.0001)   => xC yC dxF dyF rA xG yG dxV dyU rAz dxC dyC rAw rAs dxG dyG
(PID.TID 0000.0001) tile:   4 ; Read from file tile004.mitgrid
(PID.TID 0000.0001)   => xC yC dxF dyF rA xG yG dxV dyU rAz dxC dyC rAw rAs dxG dyG
(PID.TID 0000.0001) tile:   5 ; Read from file tile005.mitgrid
(PID.TID 0000.0001)   => xC yC dxF dyF rA xG yG dxV dyU rAz dxC dyC rAw rAs dxG dyG
(PID.TID 0000.0001) tile:   6 ; Read from file tile006.mitgrid
(PID.TID 0000.0001)   => xC yC dxF dyF rA xG yG dxV dyU rAz dxC dyC rAw rAs dxG dyG
(PID.TID 0000.0001) %MON XC_max                       =   1.7854351806641E+02
(PID.TID 0000.0001) %MON XC_min                       =  -1.7854351806641E+02
(PID.TID 0000.0001) %MON XC_mean                      =   0.0000000000000E+00
(PID.TID 0000.0001) %MON XC_sd                        =   1.0355545329190E+02
(PID.TID 0000.0001) %MON XG_max                       =   1.8000000000000E+02
(PID.TID 0000.0001) %MON XG_min                       =  -1.7708796691895E+02
(PID.TID 0000.0001) %MON XG_mean                      =   1.8457031250000E+00
(PID.TID 0000.0001) %MON XG_sd                        =   1.0356201798194E+02
(PID.TID 0000.0001) %MON DXC_max                      =   3.2375187500000E+05
(PID.TID 0000.0001) %MON DXC_min                      =   1.1166471093750E+05
(PID.TID 0000.0001) %MON DXC_mean                     =   2.8606279234314E+05
(PID.TID 0000.0001) %MON DXC_sd                       =   3.4029259651138E+04
(PID.TID 0000.0001) %MON DXF_max                      =   3.2369946875000E+05
(PID.TID 0000.0001) %MON DXF_min                      =   1.2081645312500E+05
(PID.TID 0000.0001) %MON DXF_mean                     =   2.8606279180908E+05
(PID.TID 0000.0001) %MON DXF_sd                       =   3.4027324635324E+04
(PID.TID 0000.0001) %MON DXG_max                      =   3.2375196875000E+05
(PID.TID 0000.0001) %MON DXG_min                      =   1.0098378125000E+05
(PID.TID 0000.0001) %MON DXG_mean                     =   2.8604515829468E+05
(PID.TID 0000.0001) %MON DXG_sd                       =   3.4124649129529E+04
(PID.TID 0000.0001) %MON DXV_max                      =   3.2380418750000E+05
(PID.TID 0000.0001) %MON DXV_min                      =   8.0152296875000E+04
(PID.TID 0000.0001) %MON DXV_mean                     =   2.8604515852356E+05
(PID.TID 0000.0001) %MON DXV_sd                       =   3.4134690425390E+04
(PID.TID 0000.0001) %MON YC_max                       =   8.7940666198730E+01
(PID.TID 0000.0001) %MON YC_min                       =  -8.7940666198730E+01
(PID.TID 0000.0001) %MON YC_mean                      =   0.0000000000000E+00
(PID.TID 0000.0001) %MON YC_sd                        =   3.8676243019129E+01
(PID.TID 0000.0001) %MON YG_max                       =   9.0000000000000E+01
(PID.TID 0000.0001) %MON YG_min                       =  -9.0000000000000E+01
(PID.TID 0000.0001) %MON YG_mean                      =   0.0000000000000E+00
(PID.TID 0000.0001) %MON YG_sd                        =   3.8676895875991E+01
(PID.TID 0000.0001) %MON DYC_max                      =   3.2375187500000E+05
(PID.TID 0000.0001) %MON DYC_min                      =   1.1166471093750E+05
(PID.TID 0000.0001) %MON DYC_mean                     =   2.8606279234314E+05
(PID.TID 0000.0001) %MON DYC_sd                       =   3.4029259651138E+04
(PID.TID 0000.0001) %MON DYF_max                      =   3.2369946875000E+05
(PID.TID 0000.0001) %MON DYF_min                      =   1.2081645312500E+05
(PID.TID 0000.0001) %MON DYF_mean                     =   2.8606279180908E+05
(PID.TID 0000.0001) %MON DYF_sd                       =   3.4027324635324E+04
(PID.TID 0000.0001) %MON DYG_max                      =   3.2375196875000E+05
(PID.TID 0000.0001) %MON DYG_min                      =   1.0098378125000E+05
(PID.TID 0000.0001) %MON DYG_mean                     =   2.8604515829468E+05
(PID.TID 0000.0001) %MON DYG_sd                       =   3.4124649129529E+04
(PID.TID 0000.0001) %MON DYU_max                      =   3.2380418750000E+05
(PID.TID 0000.0001) %MON DYU_min                      =   8.0152296875000E+04
(PID.TID 0000.0001) %MON DYU_mean                     =   2.8604515852356E+05
(PID.TID 0000.0001) %MON DYU_sd                       =   3.4134690425390E+04
(PID.TID 0000.0001) %MON RA_max                       =   1.0477149388800E+11
(PID.TID 0000.0001) %MON RA_min                       =   1.4831937536000E+10
(PID.TID 0000.0001) %MON RA_mean                      =   8.2992246560000E+10
(PID.TID 0000.0001) %MON RA_sd                        =   1.7474749265345E+10
(PID.TID 0000.0001) %MON RAW_max                      =   1.0480542515200E+11
(PID.TID 0000.0001) %MON RAW_min                      =   1.2415180800000E+10
(PID.TID 0000.0001) %MON RAW_mean                     =   8.2992246700000E+10
(PID.TID 0000.0001) %MON RAW_sd                       =   1.7475025576696E+10
(PID.TID 0000.0001) %MON RAS_max                      =   1.0480542515200E+11
(PID.TID 0000.0001) %MON RAS_min                      =   1.2415180800000E+10
(PID.TID 0000.0001) %MON RAS_mean                     =   8.2992246700000E+10
(PID.TID 0000.0001) %MON RAS_sd                       =   1.7475025576696E+10
(PID.TID 0000.0001) %MON RAZ_max                      =   1.0483925811200E+11
(PID.TID 0000.0001) %MON RAZ_min                      =   9.2429455360000E+09
(PID.TID 0000.0001) %MON RAZ_mean                     =   8.2992246690000E+10
(PID.TID 0000.0001) %MON RAZ_sd                       =   1.7475350486863E+10
(PID.TID 0000.0001) %MON AngleCS_max                  =   1.0000000000000E+00
(PID.TID 0000.0001) %MON AngleCS_min                  =   1.0000000000000E+00
(PID.TID 0000.0001) %MON AngleCS_mean                 =   1.0000000000000E+00
(PID.TID 0000.0001) %MON AngleCS_sd                   =   0.0000000000000E+00
(PID.TID 0000.0001) %MON AngleSN_max                  =   0.0000000000000E+00
(PID.TID 0000.0001) %MON AngleSN_min                  =   0.0000000000000E+00
(PID.TID 0000.0001) %MON AngleSN_mean                 =   0.0000000000000E+00
(PID.TID 0000.0001) %MON AngleSN_sd                   =   0.0000000000000E+00
(PID.TID 0000.0001) 
(PID.TID 0000.0001) SET_REF_STATE: PhiRef/g [m] at level Center (integer)
(PID.TID 0000.0001)                      and at level Interface (half-int.) :
(PID.TID 0000.0001)  K=  0.5  ;  r=       100000.0  ;  phiRef/g=        0.000
(PID.TID 0000.0001)  K=  1.0  ;  r=        50000.0  ;  phiRef/g=     5516.309
(PID.TID 0000.0001)  K=  1.5  ;  r=            0.0  ;  phiRef/g=    30703.364
(PID.TID 0000.0001) // =======================================================
(PID.TID 0000.0001) // Field Model R_low (ini_masks_etc) at iteration          1
(PID.TID 0000.0001) // CMIN =          1.000000000000000E+32
(PID.TID 0000.0001) // CMAX =         -1.000000000000000E+32
(PID.TID 0000.0001) // CINT =          0.000000000000000E+00
(PID.TID 0000.0001) // SYMBOLS (CMIN->CMAX): -abcdefghijklmnopqrstuvwxyz+
(PID.TID 0000.0001) //                  0.0: .
(PID.TID 0000.0001) // RANGE I (Lo:Hi:Step):(  -1: 194:   1)
(PID.TID 0000.0001) // RANGE J (Lo:Hi:Step):(  34:  -1:  -1)
(PID.TID 0000.0001) // RANGE K (Lo:Hi:Step):(   1:   1:   1)
(PID.TID 0000.0001) // =======================================================
(PID.TID 0000.0001) // =======================================================
(PID.TID 0000.0001) // END OF FIELD                                          =
(PID.TID 0000.0001) // =======================================================
(PID.TID 0000.0001) 
(PID.TID 0000.0001) // =======================================================
(PID.TID 0000.0001) // Field Model Ro_surf (ini_masks_etc) at iteration          1
(PID.TID 0000.0001) // CMIN =          1.000000000000000E+05
(PID.TID 0000.0001) // CMAX =          1.000000000000000E+05
(PID.TID 0000.0001) // CINT =          0.000000000000000E+00
(PID.TID 0000.0001) // SYMBOLS (CMIN->CMAX): -abcdefghijklmnopqrstuvwxyz+
(PID.TID 0000.0001) //                  0.0: .
(PID.TID 0000.0001) // RANGE I (Lo:Hi:Step):(  -1: 194:   1)
(PID.TID 0000.0001) // RANGE J (Lo:Hi:Step):(  34:  -1:  -1)
(PID.TID 0000.0001) // RANGE K (Lo:Hi:Step):(   1:   1:   1)
(PID.TID 0000.0001) // =======================================================
(PID.TID 0000.0001) // =======================================================
(PID.TID 0000.0001) // END OF FIELD                                          =
(PID.TID 0000.0001) // =======================================================
(PID.TID 0000.0001) 
(PID.TID 0000.0001) // =======================================================
(PID.TID 0000.0001) // Field hFacC at iteration          1
(PID.TID 0000.0001) // CMIN =          1.000000000000000E+00
(PID.TID 0000.0001) // CMAX =          1.000000000000000E+00
(PID.TID 0000.0001) // CINT =          0.000000000000000E+00
(PID.TID 0000.0001) // SYMBOLS (CMIN->CMAX): -abcdefghijklmnopqrstuvwxyz+
(PID.TID 0000.0001) //                  0.0: .
(PID.TID 0000.0001) // RANGE I (Lo:Hi:Step):(  -1: 194:   1)
(PID.TID 0000.0001) // RANGE J (Lo:Hi:Step):(  34:  -1:  -1)
(PID.TID 0000.0001) // RANGE K (Lo:Hi:Step):(   1:   1:   1)
(PID.TID 0000.0001) // =======================================================
(PID.TID 0000.0001) // =======================================================
(PID.TID 0000.0001) // END OF FIELD                                          =
(PID.TID 0000.0001) // =======================================================
(PID.TID 0000.0001) 
(PID.TID 0000.0001) // =======================================================
(PID.TID 0000.0001) // Field hFacW at iteration          1
(PID.TID 0000.0001) // CMIN =          1.000000000000000E+00
(PID.TID 0000.0001) // CMAX =          1.000000000000000E+00
(PID.TID 0000.0001) // CINT =          0.000000000000000E+00
(PID.TID 0000.0001) // SYMBOLS (CMIN->CMAX): -abcdefghijklmnopqrstuvwxyz+
(PID.TID 0000.0001) //                  0.0: .
(PID.TID 0000.0001) // RANGE I (Lo:Hi:Step):(  -1: 194:   1)
(PID.TID 0000.0001) // RANGE J (Lo:Hi:Step):(  34:  -1:  -1)
(PID.TID 0000.0001) // RANGE K (Lo:Hi:Step):(   1:   1:   1)
(PID.TID 0000.0001) // =======================================================
(PID.TID 0000.0001) // =======================================================
(PID.TID 0000.0001) // END OF FIELD                                          =
(PID.TID 0000.0001) // =======================================================
(PID.TID 0000.0001) 
(PID.TID 0000.0001) // =======================================================
(PID.TID 0000.0001) // Field hFacS at iteration          1
(PID.TID 0000.0001) // CMIN =          1.000000000000000E+00
(PID.TID 0000.0001) // CMAX =          1.000000000000000E+00
(PID.TID 0000.0001) // CINT =          0.000000000000000E+00
(PID.TID 0000.0001) // SYMBOLS (CMIN->CMAX): -abcdefghijklmnopqrstuvwxyz+
(PID.TID 0000.0001) //                  0.0: .
(PID.TID 0000.0001) // RANGE I (Lo:Hi:Step):(  -1: 194:   1)
(PID.TID 0000.0001) // RANGE J (Lo:Hi:Step):(  34:  -1:  -1)
(PID.TID 0000.0001) // RANGE K (Lo:Hi:Step):(   1:   1:   1)
(PID.TID 0000.0001) // =======================================================
(PID.TID 0000.0001) // =======================================================
(PID.TID 0000.0001) // END OF FIELD                                          =
(PID.TID 0000.0001) // =======================================================
(PID.TID 0000.0001) 
(PID.TID 0000.0001) 
(PID.TID 0000.0001) // ===================================
(PID.TID 0000.0001) // GAD parameters :
(PID.TID 0000.0001) // ===================================
(PID.TID 0000.0001) tempAdvScheme =   /* Temp. Horiz.Advection scheme selector */
(PID.TID 0000.0001)                       2
(PID.TID 0000.0001)     ;
(PID.TID 0000.0001) tempVertAdvScheme =   /* Temp. Vert. Advection scheme selector */
(PID.TID 0000.0001)                       2
(PID.TID 0000.0001)     ;
(PID.TID 0000.0001) tempMultiDimAdvec =   /* use Muti-Dim Advec method for Temp */
(PID.TID 0000.0001)                   F
(PID.TID 0000.0001)     ;
(PID.TID 0000.0001) tempSOM_Advection = /* use 2nd Order Moment Advection for Temp */
(PID.TID 0000.0001)                   F
(PID.TID 0000.0001)     ;
(PID.TID 0000.0001) AdamsBashforthGt = /* apply Adams-Bashforth extrapolation on Gt */
(PID.TID 0000.0001)                   F
(PID.TID 0000.0001)     ;
(PID.TID 0000.0001) AdamsBashforth_T = /* apply Adams-Bashforth extrapolation on Temp */
(PID.TID 0000.0001)                   F
(PID.TID 0000.0001)     ;
(PID.TID 0000.0001) saltAdvScheme =   /* Salt. Horiz.advection scheme selector */
(PID.TID 0000.0001)                       2
(PID.TID 0000.0001)     ;
(PID.TID 0000.0001) saltVertAdvScheme =   /* Salt. Vert. Advection scheme selector */
(PID.TID 0000.0001)                       2
(PID.TID 0000.0001)     ;
(PID.TID 0000.0001) saltMultiDimAdvec =   /* use Muti-Dim Advec method for Salt */
(PID.TID 0000.0001)                   F
(PID.TID 0000.0001)     ;
(PID.TID 0000.0001) saltSOM_Advection = /* use 2nd Order Moment Advection for Salt */
(PID.TID 0000.0001)                   F
(PID.TID 0000.0001)     ;
(PID.TID 0000.0001) AdamsBashforthGs = /* apply Adams-Bashforth extrapolation on Gs */
(PID.TID 0000.0001)                   T
(PID.TID 0000.0001)     ;
(PID.TID 0000.0001) AdamsBashforth_S = /* apply Adams-Bashforth extrapolation on Salt */
(PID.TID 0000.0001)                   F
(PID.TID 0000.0001)     ;
(PID.TID 0000.0001) // ===================================
(PID.TID 0000.0001) ------------------------------------------------------------
(PID.TID 0000.0001) DIAGNOSTICS_SET_LEVELS: done
(PID.TID 0000.0001)  Total Nb of available Diagnostics: ndiagt=   156
(PID.TID 0000.0001)  write list of available Diagnostics to file: available_diagnostics.log
(PID.TID 0000.0001) SETDIAG: Allocate  1 x  1 Levels for Diagnostic #    27 SALT
(PID.TID 0000.0001) SETDIAG: Allocate  1 x  1 Levels for Diagnostic #    33 SALTSQ
(PID.TID 0000.0001)   space allocated for all diagnostics:       2 levels
(PID.TID 0000.0001) DIAGNOSTICS_SET_POINTERS: Set levels for Outp.Stream: s_Diag
(PID.TID 0000.0001)  Levels:       1.
(PID.TID 0000.0001) DIAGNOSTICS_SET_POINTERS: done
(PID.TID 0000.0001) ------------------------------------------------------------
(PID.TID 0000.0001) DIAGSTATS_SET_REGIONS: define no region
(PID.TID 0000.0001) ------------------------------------------------------------
(PID.TID 0000.0001) SETDIAG: Allocate  1 Levels for Stats-Diag #    23 ETAN
(PID.TID 0000.0001) SETDIAG: Allocate  1 Levels for Stats-Diag #   134 momKE
(PID.TID 0000.0001) SETDIAG: Allocate  1 Levels for Stats-Diag #    27 SALT
(PID.TID 0000.0001) SETDIAG: Allocate  1 Levels for Stats-Diag #    33 SALTSQ
(PID.TID 0000.0001)   space allocated for all stats-diags:       4 levels
(PID.TID 0000.0001) DIAGSTATS_SET_POINTERS: done
(PID.TID 0000.0001) ------------------------------------------------------------
(PID.TID 0000.0001) DIAGSTATS_INI_IO: open file: dynStDiag.0000000000.txt , unit=     9
(PID.TID 0000.0001) %MON fCori_max                    =   1.4535017544404E-04
(PID.TID 0000.0001) %MON fCori_min                    =  -1.4535017544404E-04
(PID.TID 0000.0001) %MON fCori_mean                   =   0.0000000000000E+00
(PID.TID 0000.0001) %MON fCori_sd                     =   8.3972193123192E-05
(PID.TID 0000.0001) %MON fCoriG_max                   =   1.4544410805684E-04
(PID.TID 0000.0001) %MON fCoriG_min                   =  -1.4544410805684E-04
(PID.TID 0000.0001) %MON fCoriG_mean                  =   0.0000000000000E+00
(PID.TID 0000.0001) %MON fCoriG_sd                    =   8.3972193086535E-05
(PID.TID 0000.0001) %MON fCoriCos_max                 =   1.4540342090186E-04
(PID.TID 0000.0001) %MON fCoriCos_min                 =   5.2264490477683E-06
(PID.TID 0000.0001) %MON fCoriCos_mean                =   1.1482595441888E-04
(PID.TID 0000.0001) %MON fCoriCos_sd                  =   3.0292878180988E-05
(PID.TID 0000.0001) INI_CG2D: CG2D normalisation factor =  9.8929540399694815E-06
(PID.TID 0000.0001) 
(PID.TID 0000.0001) // =======================================================
(PID.TID 0000.0001) // Model configuration
(PID.TID 0000.0001) // =======================================================
(PID.TID 0000.0001) //
(PID.TID 0000.0001) // "Physical" paramters ( PARM01 in namelist )
(PID.TID 0000.0001) //
(PID.TID 0000.0001) buoyancyRelation = /* Type of relation to get Buoyancy */
(PID.TID 0000.0001)               'ATMOSPHERIC'
(PID.TID 0000.0001)     ;
(PID.TID 0000.0001) fluidIsAir  =  /* fluid major constituent is Air */
(PID.TID 0000.0001)                   T
(PID.TID 0000.0001)     ;
(PID.TID 0000.0001) fluidIsWater=  /* fluid major constituent is Water */
(PID.TID 0000.0001)                   F
(PID.TID 0000.0001)     ;
(PID.TID 0000.0001) usingPCoords =  /* use p (or p*) vertical coordinate */
(PID.TID 0000.0001)                   T
(PID.TID 0000.0001)     ;
(PID.TID 0000.0001) usingZCoords =  /* use z (or z*) vertical coordinate */
(PID.TID 0000.0001)                   F
(PID.TID 0000.0001)     ;
(PID.TID 0000.0001) tRef =   /* Reference temperature profile ( oC or K ) */
(PID.TID 0000.0001)                 3.000000000000000E+02       /* K =  1 */
(PID.TID 0000.0001)     ;
(PID.TID 0000.0001) sRef =   /* Reference salinity profile ( psu ) */
(PID.TID 0000.0001)                 0.000000000000000E+00       /* K =  1 */
(PID.TID 0000.0001)     ;
(PID.TID 0000.0001) viscAh =   /* Lateral eddy viscosity ( m^2/s ) */
(PID.TID 0000.0001)                 0.000000000000000E+00
(PID.TID 0000.0001)     ;
(PID.TID 0000.0001) viscAhMax =   /* Maximum lateral eddy viscosity ( m^2/s ) */
(PID.TID 0000.0001)                 1.000000000000000E+21
(PID.TID 0000.0001)     ;
(PID.TID 0000.0001) viscAhGrid =   /* Grid dependent lateral eddy viscosity ( non-dim. ) */
(PID.TID 0000.0001)                 0.000000000000000E+00
(PID.TID 0000.0001)     ;
(PID.TID 0000.0001) useFullLeith =   /* Use Full Form of Leith Viscosity on/off flag*/
(PID.TID 0000.0001)                   F
(PID.TID 0000.0001)     ;
(PID.TID 0000.0001) useStrainTensionVisc =   /* Use StrainTension Form of Viscous Operator on/off flag*/
(PID.TID 0000.0001)                   F
(PID.TID 0000.0001)     ;
(PID.TID 0000.0001) useAreaViscLength =   /* Use area for visc length instead of geom. mean*/
(PID.TID 0000.0001)                   F
(PID.TID 0000.0001)     ;
(PID.TID 0000.0001) viscC2leith = /* Leith harmonic visc. factor (on grad(vort),non-dim.) */
(PID.TID 0000.0001)                 0.000000000000000E+00
(PID.TID 0000.0001)     ;
(PID.TID 0000.0001) viscC2leithD = /* Leith harmonic viscosity factor (on grad(div),non-dim.) */
(PID.TID 0000.0001)                 0.000000000000000E+00
(PID.TID 0000.0001)     ;
(PID.TID 0000.0001) viscC2smag =   /* Smagorinsky harmonic viscosity factor (non-dim.) */
(PID.TID 0000.0001)                 0.000000000000000E+00
(PID.TID 0000.0001)     ;
(PID.TID 0000.0001) viscA4 =   /* Lateral biharmonic viscosity ( m^4/s ) */
(PID.TID 0000.0001)                 0.000000000000000E+00
(PID.TID 0000.0001)     ;
(PID.TID 0000.0001) viscA4Max =   /* Maximum biharmonic viscosity ( m^2/s ) */
(PID.TID 0000.0001)                 1.000000000000000E+21
(PID.TID 0000.0001)     ;
(PID.TID 0000.0001) viscA4Grid =   /* Grid dependent biharmonic viscosity ( non-dim. ) */
(PID.TID 0000.0001)                 0.000000000000000E+00
(PID.TID 0000.0001)     ;
(PID.TID 0000.0001) viscC4leith = /* Leith biharm viscosity factor (on grad(vort), non-dim.) */
(PID.TID 0000.0001)                 0.000000000000000E+00
(PID.TID 0000.0001)     ;
(PID.TID 0000.0001) viscC4leithD = /* Leith biharm viscosity factor (on grad(div), non-dim.) */
(PID.TID 0000.0001)                 0.000000000000000E+00
(PID.TID 0000.0001)     ;
(PID.TID 0000.0001) viscC4Smag = /* Smagorinsky biharm viscosity factor (non-dim) */
(PID.TID 0000.0001)                 0.000000000000000E+00
(PID.TID 0000.0001)     ;
(PID.TID 0000.0001) no_slip_sides =  /* Viscous BCs: No-slip sides */
(PID.TID 0000.0001)                   F
(PID.TID 0000.0001)     ;
(PID.TID 0000.0001) sideDragFactor = /* side-drag scaling factor (non-dim) */
(PID.TID 0000.0001)                 2.000000000000000E+00
(PID.TID 0000.0001)     ;
(PID.TID 0000.0001) viscAr =   /* Vertical eddy viscosity (Pa^2/s ) */
(PID.TID 0000.0001)                 0.000000000000000E+00
(PID.TID 0000.0001)     ;
(PID.TID 0000.0001) no_slip_bottom =  /* Viscous BCs: No-slip bottom */
(PID.TID 0000.0001)                   F
(PID.TID 0000.0001)     ;
(PID.TID 0000.0001) bottomDragLinear = /* linear bottom-drag coefficient ( m/s ) */
(PID.TID 0000.0001)                 0.000000000000000E+00
(PID.TID 0000.0001)     ;
(PID.TID 0000.0001) bottomDragQuadratic = /* quadratic bottom-drag coefficient (-) */
(PID.TID 0000.0001)                 0.000000000000000E+00
(PID.TID 0000.0001)     ;
(PID.TID 0000.0001) diffKhT =   /* Laplacian diffusion of heat laterally ( m^2/s ) */
(PID.TID 0000.0001)                 0.000000000000000E+00
(PID.TID 0000.0001)     ;
(PID.TID 0000.0001) diffK4T =   /* Biharmonic diffusion of heat laterally ( m^4/s ) */
(PID.TID 0000.0001)                 0.000000000000000E+00
(PID.TID 0000.0001)     ;
(PID.TID 0000.0001) diffKhS =   /* Laplacian diffusion of salt laterally ( m^2/s ) */
(PID.TID 0000.0001)                 0.000000000000000E+00
(PID.TID 0000.0001)     ;
(PID.TID 0000.0001) diffK4S =   /* Biharmonic diffusion of salt laterally ( m^4/s ) */
(PID.TID 0000.0001)                 0.000000000000000E+00
(PID.TID 0000.0001)     ;
(PID.TID 0000.0001) diffKrNrT = /* vertical profile of vertical diffusion of Temp (Pa^2/s )*/
(PID.TID 0000.0001)                 0.000000000000000E+00       /* K =  1 */
(PID.TID 0000.0001)     ;
(PID.TID 0000.0001) diffKrNrS = /* vertical profile of vertical diffusion of Salt (Pa^2/s )*/
(PID.TID 0000.0001)                 0.000000000000000E+00       /* K =  1 */
(PID.TID 0000.0001)     ;
(PID.TID 0000.0001) diffKrBL79surf = /* Surface diffusion for Bryan and Lewis 79 ( m^2/s ) */
(PID.TID 0000.0001)                 0.000000000000000E+00
(PID.TID 0000.0001)     ;
(PID.TID 0000.0001) diffKrBL79deep = /* Deep diffusion for Bryan and Lewis 1979 ( m^2/s ) */
(PID.TID 0000.0001)                 0.000000000000000E+00
(PID.TID 0000.0001)     ;
(PID.TID 0000.0001) diffKrBL79scl = /* Depth scale for Bryan and Lewis 1979 ( m ) */
(PID.TID 0000.0001)                 2.000000000000000E+02
(PID.TID 0000.0001)     ;
(PID.TID 0000.0001) diffKrBL79Ho = /* Turning depth for Bryan and Lewis 1979 ( m ) */
(PID.TID 0000.0001)                -2.000000000000000E+03
(PID.TID 0000.0001)     ;
(PID.TID 0000.0001) ivdc_kappa = /* Implicit Vertical Diffusivity for Convection (Pa^2/s ) */
(PID.TID 0000.0001)                 0.000000000000000E+00
(PID.TID 0000.0001)     ;
(PID.TID 0000.0001) hMixCriteria=  /* Criteria for mixed-layer diagnostic */
(PID.TID 0000.0001)                -8.000000000000000E-01
(PID.TID 0000.0001)     ;
(PID.TID 0000.0001) eosType =  /* Type of Equation of State */
(PID.TID 0000.0001)               'IDEALG'
(PID.TID 0000.0001)     ;
(PID.TID 0000.0001) tAlpha =   /* Linear EOS thermal expansion coefficient ( 1/oC ) */
(PID.TID 0000.0001)                 1.234567000000000E+05
(PID.TID 0000.0001)     ;
(PID.TID 0000.0001) sBeta =   /* Linear EOS haline contraction coefficient ( 1/psu ) */
(PID.TID 0000.0001)                 1.234567000000000E+05
(PID.TID 0000.0001)     ;
(PID.TID 0000.0001) atm_Rd =  /* gas constant for dry air ( J/kg/K ) */
(PID.TID 0000.0001)                 2.868571428571428E+02
(PID.TID 0000.0001)     ;
(PID.TID 0000.0001) atm_Cp =  /* specific heat (Cp) of dry air ( J/kg/K ) */
(PID.TID 0000.0001)                 1.004000000000000E+03
(PID.TID 0000.0001)     ;
(PID.TID 0000.0001) atm_kappa =  /* kappa (=Rd/Cp ) of dry air */
(PID.TID 0000.0001)                 2.857142857142857E-01
(PID.TID 0000.0001)     ;
(PID.TID 0000.0001) atm_Rq = /* water vap. specific vol. anomaly relative to dry air */
(PID.TID 0000.0001)                 0.000000000000000E+00
(PID.TID 0000.0001)     ;
(PID.TID 0000.0001) atm_Po =  /* standard reference pressure ( Pa ) */
(PID.TID 0000.0001)                 1.000000000000000E+05
(PID.TID 0000.0001)     ;
(PID.TID 0000.0001) integr_GeoPot =  /* select how the geopotential is integrated */
(PID.TID 0000.0001)                       2
(PID.TID 0000.0001)     ;
(PID.TID 0000.0001) selectFindRoSurf=  /* select how Surf.Ref. pressure is defined */
(PID.TID 0000.0001)                       0
(PID.TID 0000.0001)     ;
(PID.TID 0000.0001) rhonil =   /* Reference density ( kg/m^3 ) */
(PID.TID 0000.0001)                 1.000000000000000E+00
(PID.TID 0000.0001)     ;
(PID.TID 0000.0001) rhoConst =   /* Reference density ( kg/m^3 ) */
(PID.TID 0000.0001)                 1.000000000000000E+00
(PID.TID 0000.0001)     ;
(PID.TID 0000.0001) rhoFacC = /* normalized Reference density @ cell-Center (-) */
(PID.TID 0000.0001)                 1.000000000000000E+00       /* K =  1 */
(PID.TID 0000.0001)     ;
(PID.TID 0000.0001) rhoFacF = /* normalized Reference density @ W-Interface (-) */
(PID.TID 0000.0001)     2 @  1.000000000000000E+00              /* K =  1:  2 */
(PID.TID 0000.0001)     ;
(PID.TID 0000.0001) rhoConstFresh =   /* Reference density ( kg/m^3 ) */
(PID.TID 0000.0001)                 1.000000000000000E+00
(PID.TID 0000.0001)     ;
(PID.TID 0000.0001) gravity =   /* Gravitational acceleration ( m/s^2 ) */
(PID.TID 0000.0001)                 9.810000000000000E+00
(PID.TID 0000.0001)     ;
(PID.TID 0000.0001) gBaro =   /* Barotropic gravity ( m/s^2 ) */
(PID.TID 0000.0001)                 9.810000000000000E+00
(PID.TID 0000.0001)     ;
(PID.TID 0000.0001) rotationPeriod =   /* Rotation Period ( s ) */
(PID.TID 0000.0001)                 8.640000000000000E+04
(PID.TID 0000.0001)     ;
(PID.TID 0000.0001) omega =   /* Angular velocity ( rad/s ) */
(PID.TID 0000.0001)                 7.272205216643040E-05
(PID.TID 0000.0001)     ;
(PID.TID 0000.0001) f0 =   /* Reference coriolis parameter ( 1/s ) */
(PID.TID 0000.0001)                 1.000000000000000E-04
(PID.TID 0000.0001)     ;
(PID.TID 0000.0001) beta =   /* Beta ( 1/(m.s) ) */
(PID.TID 0000.0001)                 9.999999999999999E-12
(PID.TID 0000.0001)     ;
(PID.TID 0000.0001) freeSurfFac =   /* Implicit free surface factor */
(PID.TID 0000.0001)                 1.000000000000000E+00
(PID.TID 0000.0001)     ;
(PID.TID 0000.0001) implicitFreeSurface =   /* Implicit free surface on/off flag */
(PID.TID 0000.0001)                   T
(PID.TID 0000.0001)     ;
(PID.TID 0000.0001) rigidLid =   /* Rigid lid on/off flag */
(PID.TID 0000.0001)                   F
(PID.TID 0000.0001)     ;
(PID.TID 0000.0001) implicSurfPress =   /* Surface Pressure implicit factor (0-1)*/
(PID.TID 0000.0001)                 1.000000000000000E+00
(PID.TID 0000.0001)     ;
(PID.TID 0000.0001) implicDiv2Dflow =   /* Barot. Flow Div. implicit factor (0-1)*/
(PID.TID 0000.0001)                 1.000000000000000E+00
(PID.TID 0000.0001)     ;
(PID.TID 0000.0001) exactConserv =   /* Exact Volume Conservation on/off flag*/
(PID.TID 0000.0001)                   F
(PID.TID 0000.0001)     ;
(PID.TID 0000.0001) linFSConserveTr =   /* Tracer correction for Lin Free Surface on/off flag*/
(PID.TID 0000.0001)                   F
(PID.TID 0000.0001)     ;
(PID.TID 0000.0001) uniformLin_PhiSurf =   /* use uniform Bo_surf on/off flag*/
(PID.TID 0000.0001)                   T
(PID.TID 0000.0001)     ;
(PID.TID 0000.0001) nonlinFreeSurf =   /* Non-linear Free Surf. options (-1,0,1,2,3)*/
(PID.TID 0000.0001)                       0
(PID.TID 0000.0001)     ;
(PID.TID 0000.0001)      -1,0= Off ; 1,2,3= On, 2=+rescale gU,gV, 3=+update cg2d solv.
(PID.TID 0000.0001) hFacInf =   /* lower threshold for hFac (nonlinFreeSurf only)*/
(PID.TID 0000.0001)                 2.000000000000000E-01
(PID.TID 0000.0001)     ;
(PID.TID 0000.0001) hFacSup =   /* upper threshold for hFac (nonlinFreeSurf only)*/
(PID.TID 0000.0001)                 2.000000000000000E+00
(PID.TID 0000.0001)     ;
(PID.TID 0000.0001) select_rStar = /* r* Vertical coord. options (=0 r coord.; > 0 uses r*) */
(PID.TID 0000.0001)                       0
(PID.TID 0000.0001)     ;
(PID.TID 0000.0001) selectAddFluid = /* option for mass source/sink of fluid (=0: off) */
(PID.TID 0000.0001)                       0
(PID.TID 0000.0001)     ;
(PID.TID 0000.0001) useRealFreshWaterFlux = /* Real Fresh Water Flux on/off flag*/
(PID.TID 0000.0001)                   F
(PID.TID 0000.0001)     ;
(PID.TID 0000.0001) temp_EvPrRn = /* Temp. of Evap/Prec/R (UNSET=use local T)(oC)*/
(PID.TID 0000.0001)                 1.234567000000000E+05
(PID.TID 0000.0001)     ;
(PID.TID 0000.0001) salt_EvPrRn = /* Salin. of Evap/Prec/R (UNSET=use local S)(ppt)*/
(PID.TID 0000.0001)                 0.000000000000000E+00
(PID.TID 0000.0001)     ;
(PID.TID 0000.0001) convertFW2Salt = /* convert F.W. Flux to Salt Flux (-1=use local S)(ppt)*/
(PID.TID 0000.0001)                 3.500000000000000E+01
(PID.TID 0000.0001)     ;
(PID.TID 0000.0001) use3Dsolver = /* use 3-D pressure solver on/off flag */
(PID.TID 0000.0001)                   F
(PID.TID 0000.0001)     ;
(PID.TID 0000.0001) nonHydrostatic =  /* Non-Hydrostatic on/off flag */
(PID.TID 0000.0001)                   F
(PID.TID 0000.0001)     ;
(PID.TID 0000.0001) nh_Am2 = /* Non-Hydrostatic terms scaling factor */
(PID.TID 0000.0001)                 1.000000000000000E+00
(PID.TID 0000.0001)     ;
(PID.TID 0000.0001) quasiHydrostatic = /* Quasi-Hydrostatic on/off flag */
(PID.TID 0000.0001)                   F
(PID.TID 0000.0001)     ;
(PID.TID 0000.0001) momStepping =  /* Momentum equation on/off flag */
(PID.TID 0000.0001)                   T
(PID.TID 0000.0001)     ;
(PID.TID 0000.0001) vectorInvariantMomentum= /* Vector-Invariant Momentum on/off */
(PID.TID 0000.0001)                   T
(PID.TID 0000.0001)     ;
(PID.TID 0000.0001) momAdvection =  /* Momentum advection on/off flag */
(PID.TID 0000.0001)                   T
(PID.TID 0000.0001)     ;
(PID.TID 0000.0001) momViscosity =  /* Momentum viscosity on/off flag */
(PID.TID 0000.0001)                   T
(PID.TID 0000.0001)     ;
(PID.TID 0000.0001) momImplVertAdv =/* Momentum implicit vert. advection on/off*/
(PID.TID 0000.0001)                   F
(PID.TID 0000.0001)     ;
(PID.TID 0000.0001) implicitViscosity = /* Implicit viscosity on/off flag */
(PID.TID 0000.0001)                   F
(PID.TID 0000.0001)     ;
(PID.TID 0000.0001) metricTerms =  /* metric-Terms on/off flag */
(PID.TID 0000.0001)                   F
(PID.TID 0000.0001)     ;
(PID.TID 0000.0001) useNHMTerms = /* Non-Hydrostatic Metric-Terms on/off */
(PID.TID 0000.0001)                   F
(PID.TID 0000.0001)     ;
(PID.TID 0000.0001) useConstantF =  /* use Constant f0 Coriolis flag */
(PID.TID 0000.0001)                   F
(PID.TID 0000.0001)     ;
(PID.TID 0000.0001) useBetaPlaneF = /* use Beta-Plane Coriolis flag */
(PID.TID 0000.0001)                   F
(PID.TID 0000.0001)     ;
(PID.TID 0000.0001) useSphereF  =   /* use Spherical Coriolis flag */
(PID.TID 0000.0001)                   T
(PID.TID 0000.0001)     ;
(PID.TID 0000.0001) use3dCoriolis = /* 3-D Coriolis on/off flag */
(PID.TID 0000.0001)                   F
(PID.TID 0000.0001)     ;
(PID.TID 0000.0001) useCoriolis =  /* Coriolis on/off flag */
(PID.TID 0000.0001)                   T
(PID.TID 0000.0001)     ;
(PID.TID 0000.0001) useCDscheme =  /* CD scheme on/off flag */
(PID.TID 0000.0001)                   F
(PID.TID 0000.0001)     ;
(PID.TID 0000.0001) useJamartWetPoints= /* Coriolis WetPoints method flag */
(PID.TID 0000.0001)                   F
(PID.TID 0000.0001)     ;
(PID.TID 0000.0001) useJamartMomAdv= /* V.I. Non-linear terms Jamart flag */
(PID.TID 0000.0001)                   F
(PID.TID 0000.0001)     ;
(PID.TID 0000.0001) useAbsVorticity= /* Work with f+zeta in Coriolis */
(PID.TID 0000.0001)                   F
(PID.TID 0000.0001)     ;
(PID.TID 0000.0001) selectVortScheme= /* Scheme selector for Vorticity-Term */
(PID.TID 0000.0001)                       1
(PID.TID 0000.0001)    = 0 : enstrophy (Shallow-Water Eq.) conserving scheme by Sadourny, JAS 75
(PID.TID 0000.0001)    = 1 : same as 0 with modified hFac
(PID.TID 0000.0001)    = 2 : energy conserving scheme (used by Sadourny in JAS 75 paper)
(PID.TID 0000.0001)    = 3 : energy (general) and enstrophy (2D, nonDiv.) conserving scheme
(PID.TID 0000.0001)          from Sadourny (Burridge & Haseler, ECMWF Rep.4, 1977)
(PID.TID 0000.0001)     ;
(PID.TID 0000.0001) upwindVorticity= /* Upwind bias vorticity flag */
(PID.TID 0000.0001)                   F
(PID.TID 0000.0001)     ;
(PID.TID 0000.0001) highOrderVorticity= /* High order interp. of vort. flag */
(PID.TID 0000.0001)                   F
(PID.TID 0000.0001)     ;
(PID.TID 0000.0001) upwindShear= /* Upwind vertical Shear advection flag */
(PID.TID 0000.0001)                   F
(PID.TID 0000.0001)     ;
(PID.TID 0000.0001) selectKEscheme= /* Kinetic Energy scheme selector */
(PID.TID 0000.0001)                       0
(PID.TID 0000.0001)     ;
(PID.TID 0000.0001) momForcing =  /* Momentum forcing on/off flag */
(PID.TID 0000.0001)                   T
(PID.TID 0000.0001)     ;
(PID.TID 0000.0001) momPressureForcing =  /* Momentum pressure term on/off flag */
(PID.TID 0000.0001)                   T
(PID.TID 0000.0001)     ;
(PID.TID 0000.0001) implicitIntGravWave= /* Implicit Internal Gravity Wave flag */
(PID.TID 0000.0001)                   F
(PID.TID 0000.0001)     ;
(PID.TID 0000.0001) staggerTimeStep =   /* Stagger time stepping on/off flag */
(PID.TID 0000.0001)                   F
(PID.TID 0000.0001)     ;
(PID.TID 0000.0001) multiDimAdvection =   /* enable/disable Multi-Dim Advection */
(PID.TID 0000.0001)                   T
(PID.TID 0000.0001)     ;
(PID.TID 0000.0001) useMultiDimAdvec =   /* Multi-Dim Advection is/is-not used */
(PID.TID 0000.0001)                   F
(PID.TID 0000.0001)     ;
(PID.TID 0000.0001) implicitDiffusion =/* Implicit Diffusion on/off flag */
(PID.TID 0000.0001)                   F
(PID.TID 0000.0001)     ;
(PID.TID 0000.0001) tempStepping =  /* Temperature equation on/off flag */
(PID.TID 0000.0001)                   F
(PID.TID 0000.0001)     ;
(PID.TID 0000.0001) tempAdvection=  /* Temperature advection on/off flag */
(PID.TID 0000.0001)                   F
(PID.TID 0000.0001)     ;
(PID.TID 0000.0001) tempImplVertAdv =/* Temp. implicit vert. advection on/off */
(PID.TID 0000.0001)                   F
(PID.TID 0000.0001)     ;
(PID.TID 0000.0001) tempForcing  =  /* Temperature forcing on/off flag */
(PID.TID 0000.0001)                   F
(PID.TID 0000.0001)     ;
(PID.TID 0000.0001) tempIsActiveTr = /* Temp. is a dynamically Active Tracer */
(PID.TID 0000.0001)                   F
(PID.TID 0000.0001)     ;
(PID.TID 0000.0001) saltStepping =  /* Salinity equation on/off flag */
(PID.TID 0000.0001)                   T
(PID.TID 0000.0001)     ;
(PID.TID 0000.0001) saltAdvection=  /* Salinity advection on/off flag */
(PID.TID 0000.0001)                   T
(PID.TID 0000.0001)     ;
(PID.TID 0000.0001) saltImplVertAdv =/* Sali. implicit vert. advection on/off */
(PID.TID 0000.0001)                   F
(PID.TID 0000.0001)     ;
(PID.TID 0000.0001) saltForcing  =  /* Salinity forcing on/off flag */
(PID.TID 0000.0001)                   T
(PID.TID 0000.0001)     ;
(PID.TID 0000.0001) saltIsActiveTr = /* Salt  is a dynamically Active Tracer */
(PID.TID 0000.0001)                   T
(PID.TID 0000.0001)     ;
(PID.TID 0000.0001)  readBinaryPrec = /* Precision used for reading binary files */
(PID.TID 0000.0001)                      64
(PID.TID 0000.0001)     ;
(PID.TID 0000.0001) writeBinaryPrec = /* Precision used for writing binary files */
(PID.TID 0000.0001)                      64
(PID.TID 0000.0001)     ;
(PID.TID 0000.0001)  globalFiles = /* write "global" (=not per tile) files */
(PID.TID 0000.0001)                   F
(PID.TID 0000.0001)     ;
(PID.TID 0000.0001)  useSingleCpuIO = /* only master MPI process does I/O */
(PID.TID 0000.0001)                   F
(PID.TID 0000.0001)     ;
(PID.TID 0000.0001)  debugMode  =  /* Debug Mode on/off flag */
(PID.TID 0000.0001)                   F
(PID.TID 0000.0001)     ;
(PID.TID 0000.0001)    debLevA  =  /* 1rst level of debugging */
(PID.TID 0000.0001)                       1
(PID.TID 0000.0001)     ;
(PID.TID 0000.0001)    debLevB  =  /* 2nd  level of debugging */
(PID.TID 0000.0001)                       2
(PID.TID 0000.0001)     ;
(PID.TID 0000.0001)  debugLevel =  /* select debugging level */
(PID.TID 0000.0001)                       1
(PID.TID 0000.0001)     ;
(PID.TID 0000.0001) //
(PID.TID 0000.0001) // Elliptic solver(s) paramters ( PARM02 in namelist )
(PID.TID 0000.0001) //
(PID.TID 0000.0001) cg2dMaxIters =   /* Upper limit on 2d con. grad iterations  */
(PID.TID 0000.0001)                     600
(PID.TID 0000.0001)     ;
(PID.TID 0000.0001) cg2dChkResFreq =   /* 2d con. grad convergence test frequency */
(PID.TID 0000.0001)                       1
(PID.TID 0000.0001)     ;
(PID.TID 0000.0001) cg2dTargetResidual =   /* 2d con. grad target residual  */
(PID.TID 0000.0001)                 1.000000000000000E-12
(PID.TID 0000.0001)     ;
(PID.TID 0000.0001) cg2dTargetResWunit =   /* CG2d target residual [W units] */
(PID.TID 0000.0001)                -1.000000000000000E+00
(PID.TID 0000.0001)     ;
(PID.TID 0000.0001) cg2dPreCondFreq =   /* Freq. for updating cg2d preconditioner */
(PID.TID 0000.0001)                       1
(PID.TID 0000.0001)     ;
(PID.TID 0000.0001) //
(PID.TID 0000.0001) // Time stepping paramters ( PARM03 in namelist )
(PID.TID 0000.0001) //
(PID.TID 0000.0001) deltaTmom =   /* Momentum equation timestep ( s ) */
(PID.TID 0000.0001)                 1.200000000000000E+03
(PID.TID 0000.0001)     ;
(PID.TID 0000.0001) deltaTfreesurf =   /* FreeSurface equation timestep ( s ) */
(PID.TID 0000.0001)                 1.200000000000000E+03
(PID.TID 0000.0001)     ;
(PID.TID 0000.0001) dTtracerLev =   /* Tracer equation timestep ( s ) */
(PID.TID 0000.0001)                 1.200000000000000E+03       /* K =  1 */
(PID.TID 0000.0001)     ;
(PID.TID 0000.0001) deltaTClock  =   /* Model clock timestep ( s ) */
(PID.TID 0000.0001)                 1.200000000000000E+03
(PID.TID 0000.0001)     ;
(PID.TID 0000.0001) cAdjFreq =   /* Convective adjustment interval ( s ) */
(PID.TID 0000.0001)                 0.000000000000000E+00
(PID.TID 0000.0001)     ;
(PID.TID 0000.0001) momForcingOutAB = /* =1: take Momentum Forcing out of Adams-Bash. stepping */
(PID.TID 0000.0001)                       0
(PID.TID 0000.0001)     ;
(PID.TID 0000.0001) tracForcingOutAB = /* =1: take T,S,pTr Forcing out of Adams-Bash. stepping */
(PID.TID 0000.0001)                       0
(PID.TID 0000.0001)     ;
(PID.TID 0000.0001) momDissip_In_AB = /* put Dissipation Tendency in Adams-Bash. stepping */
(PID.TID 0000.0001)                   T
(PID.TID 0000.0001)     ;
(PID.TID 0000.0001) doAB_onGtGs = /* apply AB on Tendencies (rather than on T,S)*/
(PID.TID 0000.0001)                   T
(PID.TID 0000.0001)     ;
(PID.TID 0000.0001) abEps =   /* Adams-Bashforth-2 stabilizing weight */
(PID.TID 0000.0001)                 1.000000000000000E-01
(PID.TID 0000.0001)     ;
(PID.TID 0000.0001) pickupStrictlyMatch= /* stop if pickup do not strictly match */
(PID.TID 0000.0001)                   T
(PID.TID 0000.0001)     ;
(PID.TID 0000.0001) nIter0 =   /* Run starting timestep number  */
(PID.TID 0000.0001)                       0
(PID.TID 0000.0001)     ;
(PID.TID 0000.0001) nTimeSteps =   /* Number of timesteps */
(PID.TID 0000.0001)                      20
(PID.TID 0000.0001)     ;
(PID.TID 0000.0001) baseTime =   /* Model base time ( s ). */
(PID.TID 0000.0001)                 0.000000000000000E+00
(PID.TID 0000.0001)     ;
(PID.TID 0000.0001) startTime =   /* Run start time ( s ). */
(PID.TID 0000.0001)                 0.000000000000000E+00
(PID.TID 0000.0001)     ;
(PID.TID 0000.0001) endTime =   /* Integration ending time ( s ). */
(PID.TID 0000.0001)                 2.400000000000000E+04
(PID.TID 0000.0001)     ;
(PID.TID 0000.0001) pChkPtFreq =   /* Permanent restart/checkpoint file interval ( s ). */
(PID.TID 0000.0001)                 0.000000000000000E+00
(PID.TID 0000.0001)     ;
(PID.TID 0000.0001) chkPtFreq =   /* Rolling restart/checkpoint file interval ( s ). */
(PID.TID 0000.0001)                 0.000000000000000E+00
(PID.TID 0000.0001)     ;
(PID.TID 0000.0001) pickup_write_mdsio =   /* Model IO flag. */
(PID.TID 0000.0001)                   T
(PID.TID 0000.0001)     ;
(PID.TID 0000.0001) pickup_read_mdsio =   /* Model IO flag. */
(PID.TID 0000.0001)                   T
(PID.TID 0000.0001)     ;
(PID.TID 0000.0001) pickup_write_immed =   /* Model IO flag. */
(PID.TID 0000.0001)                   F
(PID.TID 0000.0001)     ;
(PID.TID 0000.0001) writePickupAtEnd =   /* Model IO flag. */
(PID.TID 0000.0001)                   T
(PID.TID 0000.0001)     ;
(PID.TID 0000.0001) dumpFreq =   /* Model state write out interval ( s ). */
(PID.TID 0000.0001)                 8.640000000000000E+04
(PID.TID 0000.0001)     ;
(PID.TID 0000.0001) dumpInitAndLast= /* write out Initial & Last iter. model state */
(PID.TID 0000.0001)                   T
(PID.TID 0000.0001)     ;
(PID.TID 0000.0001) snapshot_mdsio =   /* Model IO flag. */
(PID.TID 0000.0001)                   T
(PID.TID 0000.0001)     ;
(PID.TID 0000.0001) monitorFreq =   /* Monitor output interval ( s ). */
(PID.TID 0000.0001)                 1.000000000000000E+00
(PID.TID 0000.0001)     ;
(PID.TID 0000.0001) monitorSelect = /* select group of variables to monitor */
(PID.TID 0000.0001)                       2
(PID.TID 0000.0001)     ;
(PID.TID 0000.0001) monitor_stdio =   /* Model IO flag. */
(PID.TID 0000.0001)                   T
(PID.TID 0000.0001)     ;
(PID.TID 0000.0001) externForcingPeriod =   /* forcing period (s) */
(PID.TID 0000.0001)                 0.000000000000000E+00
(PID.TID 0000.0001)     ;
(PID.TID 0000.0001) externForcingCycle =   /* period of the cyle (s). */
(PID.TID 0000.0001)                 0.000000000000000E+00
(PID.TID 0000.0001)     ;
(PID.TID 0000.0001) tauThetaClimRelax =   /* relaxation time scale (s) */
(PID.TID 0000.0001)                 0.000000000000000E+00
(PID.TID 0000.0001)     ;
(PID.TID 0000.0001) tauSaltClimRelax =   /* relaxation time scale (s) */
(PID.TID 0000.0001)                 0.000000000000000E+00
(PID.TID 0000.0001)     ;
(PID.TID 0000.0001) latBandClimRelax =   /* max. Lat. where relaxation */
(PID.TID 0000.0001)                 1.800000000000000E+02
(PID.TID 0000.0001)     ;
(PID.TID 0000.0001) //
(PID.TID 0000.0001) // Gridding paramters ( PARM04 in namelist )
(PID.TID 0000.0001) //
(PID.TID 0000.0001) usingCartesianGrid = /* Cartesian coordinates flag ( True/False ) */
(PID.TID 0000.0001)                   F
(PID.TID 0000.0001)     ;
(PID.TID 0000.0001) usingCylindricalGrid = /* Cylindrical coordinates flag ( True/False ) */
(PID.TID 0000.0001)                   F
(PID.TID 0000.0001)     ;
(PID.TID 0000.0001) usingSphericalPolarGrid = /* Spherical coordinates flag ( True/False ) */
(PID.TID 0000.0001)                   F
(PID.TID 0000.0001)     ;
(PID.TID 0000.0001) usingCurvilinearGrid = /* Curvilinear coordinates flag ( True/False ) */
(PID.TID 0000.0001)                   T
(PID.TID 0000.0001)     ;
(PID.TID 0000.0001) Ro_SeaLevel = /* r(1) ( units of r == Pa ) */
(PID.TID 0000.0001)                 1.000000000000000E+05
(PID.TID 0000.0001)     ;
(PID.TID 0000.0001) rkSign =   /* index orientation relative to vertical coordinate */
(PID.TID 0000.0001)                -1.000000000000000E+00
(PID.TID 0000.0001)     ;
(PID.TID 0000.0001) gravitySign = /* gravity orientation relative to vertical coordinate */
(PID.TID 0000.0001)                 1.000000000000000E+00
(PID.TID 0000.0001)     ;
(PID.TID 0000.0001) mass2rUnit = /* convert mass per unit area [kg/m2] to r-units [Pa] */
(PID.TID 0000.0001)                 9.810000000000000E+00
(PID.TID 0000.0001)     ;
(PID.TID 0000.0001) rUnit2mass = /* convert r-units [Pa] to mass per unit area [kg/m2] */
(PID.TID 0000.0001)                 1.019367991845056E-01
(PID.TID 0000.0001)     ;
(PID.TID 0000.0001) drC =   /* C spacing ( units of r ) */
(PID.TID 0000.0001)                 5.134144262925587E+37       /* K =  1 */
(PID.TID 0000.0001)     ;
(PID.TID 0000.0001) drF =   /* W spacing ( units of r ) */
(PID.TID 0000.0001)                 1.364455069962535E-40       /* K =  1 */
(PID.TID 0000.0001)     ;
(PID.TID 0000.0001) delX =   /* U spacing ( m - cartesian, degrees - spherical ) */
(PID.TID 0000.0001)   192 @  1.234567000000000E+05              /* I =  1:192 */
(PID.TID 0000.0001)     ;
(PID.TID 0000.0001) delY =   /* V spacing ( m - cartesian, degrees - spherical ) */
(PID.TID 0000.0001)    32 @  1.234567000000000E+05              /* J =  1: 32 */
(PID.TID 0000.0001)     ;
(PID.TID 0000.0001) phiMin =    /* South edge (ignored - cartesian, degrees - spherical ) */
(PID.TID 0000.0001)                 0.000000000000000E+00
(PID.TID 0000.0001)     ;
(PID.TID 0000.0001) thetaMin =    /* West edge ( ignored - cartesian, degrees - spherical ) */
(PID.TID 0000.0001)                 0.000000000000000E+00
(PID.TID 0000.0001)     ;
(PID.TID 0000.0001) rSphere =  /* Radius ( ignored - cartesian, m - spherical ) */
(PID.TID 0000.0001)                 6.370000000000000E+06
(PID.TID 0000.0001)     ;
(PID.TID 0000.0001) deepAtmosphere = /* Deep/Shallow Atmosphere flag (True/False) */
(PID.TID 0000.0001)                   F
(PID.TID 0000.0001)     ;
(PID.TID 0000.0001) xcoord =   /* P-point X coord ( m - cartesian, degrees - spherical ) */
(PID.TID 0000.0001)                 1.356047821044922E+02,      /* I =  1 */
(PID.TID 0000.0001)                 1.370435943603516E+02,      /* I =  2 */
(PID.TID 0000.0001)                 1.387794494628906E+02,      /* I =  3 */
(PID.TID 0000.0001)                 1.407655334472656E+02,      /* I =  4 */
(PID.TID 0000.0001)                 1.429741516113281E+02,      /* I =  5 */
(PID.TID 0000.0001)                 1.453881988525391E+02,      /* I =  6 */
(PID.TID 0000.0001)                 1.479956512451172E+02,      /* I =  7 */
(PID.TID 0000.0001)                 1.507864379882812E+02,      /* I =  8 */
(PID.TID 0000.0001)                 1.537506713867188E+02,      /* I =  9 */
(PID.TID 0000.0001)                 1.568773803710938E+02,      /* I = 10 */
(PID.TID 0000.0001)                 1.601535949707031E+02,      /* I = 11 */
(PID.TID 0000.0001)                 1.635636901855469E+02,      /* I = 12 */
(PID.TID 0000.0001)                 1.670890960693359E+02,      /* I = 13 */
(PID.TID 0000.0001)                 1.707081909179688E+02,      /* I = 14 */
(PID.TID 0000.0001)                 1.743965301513672E+02,      /* I = 15 */
(PID.TID 0000.0001)                 1.781273956298828E+02,      /* I = 16 */
(PID.TID 0000.0001)                -1.781273956298828E+02,      /* I = 17 */
(PID.TID 0000.0001)                -1.743965301513672E+02,      /* I = 18 */
(PID.TID 0000.0001)                -1.707081909179688E+02,      /* I = 19 */
(PID.TID 0000.0001)                -1.670890960693359E+02,      /* I = 20 */
(PID.TID 0000.0001)                -1.635636901855469E+02,      /* I = 21 */
(PID.TID 0000.0001)                -1.601535949707031E+02,      /* I = 22 */
(PID.TID 0000.0001)                -1.568773803710938E+02,      /* I = 23 */
(PID.TID 0000.0001)                -1.537506713867188E+02,      /* I = 24 */
(PID.TID 0000.0001)                -1.507864379882812E+02,      /* I = 25 */
(PID.TID 0000.0001)                -1.479956512451172E+02,      /* I = 26 */
(PID.TID 0000.0001)                -1.453881988525391E+02,      /* I = 27 */
(PID.TID 0000.0001)                -1.429741516113281E+02,      /* I = 28 */
(PID.TID 0000.0001)                -1.407655334472656E+02,      /* I = 29 */
(PID.TID 0000.0001)                -1.387794494628906E+02,      /* I = 30 */
(PID.TID 0000.0001)                -1.370435943603516E+02,      /* I = 31 */
(PID.TID 0000.0001)                -1.356047821044922E+02,      /* I = 32 */
(PID.TID 0000.0001)                -1.343952178955078E+02,      /* I = 33 */
(PID.TID 0000.0001)                -1.329564056396484E+02,      /* I = 34 */
(PID.TID 0000.0001)                -1.312205505371094E+02,      /* I = 35 */
(PID.TID 0000.0001)                -1.292344665527344E+02,      /* I = 36 */
(PID.TID 0000.0001)                -1.270258483886719E+02,      /* I = 37 */
(PID.TID 0000.0001)                -1.246117935180664E+02,      /* I = 38 */
(PID.TID 0000.0001)                -1.220043487548828E+02,      /* I = 39 */
(PID.TID 0000.0001)                -1.192135620117188E+02,      /* I = 40 */
(PID.TID 0000.0001)                -1.162493209838867E+02,      /* I = 41 */
(PID.TID 0000.0001)                -1.131226119995117E+02,      /* I = 42 */
(PID.TID 0000.0001)                -1.098464050292969E+02,      /* I = 43 */
(PID.TID 0000.0001)                -1.064363098144531E+02,      /* I = 44 */
(PID.TID 0000.0001)                -1.029108963012695E+02,      /* I = 45 */
(PID.TID 0000.0001)                -9.929180908203125E+01,      /* I = 46 */
(PID.TID 0000.0001)                -9.560347747802734E+01,      /* I = 47 */
(PID.TID 0000.0001)                -9.187261199951172E+01,      /* I = 48 */
(PID.TID 0000.0001)                -8.812738800048828E+01,      /* I = 49 */
(PID.TID 0000.0001)                -8.439652252197266E+01,      /* I = 50 */
(PID.TID 0000.0001)                -8.070819091796875E+01,      /* I = 51 */
(PID.TID 0000.0001)                -7.708910369873047E+01,      /* I = 52 */
(PID.TID 0000.0001)                -7.356369018554688E+01,      /* I = 53 */
(PID.TID 0000.0001)                -7.015359497070312E+01,      /* I = 54 */
(PID.TID 0000.0001)                -6.687738800048828E+01,      /* I = 55 */
(PID.TID 0000.0001)                -6.375067901611328E+01,      /* I = 56 */
(PID.TID 0000.0001)                -6.078644180297852E+01,      /* I = 57 */
(PID.TID 0000.0001)                -5.799565505981445E+01,      /* I = 58 */
(PID.TID 0000.0001)                -5.538820648193359E+01,      /* I = 59 */
(PID.TID 0000.0001)                -5.297414779663086E+01,      /* I = 60 */
(PID.TID 0000.0001)                -5.076553726196289E+01,      /* I = 61 */
(PID.TID 0000.0001)                -4.877944564819336E+01,      /* I = 62 */
(PID.TID 0000.0001)                -4.704358673095703E+01,      /* I = 63 */
(PID.TID 0000.0001)                -4.560477828979492E+01,      /* I = 64 */
(PID.TID 0000.0001)                -1.350000000000000E+02,      /* I = 65 */
(PID.TID 0000.0001)                -1.337919464111328E+02,      /* I = 66 */
(PID.TID 0000.0001)                -1.321863098144531E+02,      /* I = 67 */
(PID.TID 0000.0001)                -1.302823181152344E+02,      /* I = 68 */
(PID.TID 0000.0001)                -1.281226196289062E+02,      /* I = 69 */
(PID.TID 0000.0001)                -1.257299575805664E+02,      /* I = 70 */
(PID.TID 0000.0001)                -1.231187133789062E+02,      /* I = 71 */
(PID.TID 0000.0001)                -1.202998199462891E+02,      /* I = 72 */
(PID.TID 0000.0001)                -1.172834472656250E+02,      /* I = 73 */
(PID.TID 0000.0001)                -1.140808563232422E+02,      /* I = 74 */
(PID.TID 0000.0001)                -1.107056045532227E+02,      /* I = 75 */
(PID.TID 0000.0001)                -1.071745452880859E+02,      /* I = 76 */
(PID.TID 0000.0001)                -1.035083084106445E+02,      /* I = 77 */
(PID.TID 0000.0001)                -9.973157501220703E+01,      /* I = 78 */
(PID.TID 0000.0001)                -9.587273406982422E+01,      /* I = 79 */
(PID.TID 0000.0001)                -9.196327972412109E+01,      /* I = 80 */
(PID.TID 0000.0001)                -8.803672027587891E+01,      /* I = 81 */
(PID.TID 0000.0001)                -8.412726593017578E+01,      /* I = 82 */
(PID.TID 0000.0001)                -8.026842498779297E+01,      /* I = 83 */
(PID.TID 0000.0001)                -7.649169158935547E+01,      /* I = 84 */
(PID.TID 0000.0001)                -7.282545471191406E+01,      /* I = 85 */
(PID.TID 0000.0001)                -6.929439544677734E+01,      /* I = 86 */
(PID.TID 0000.0001)                -6.591914367675781E+01,      /* I = 87 */
(PID.TID 0000.0001)                -6.271654891967773E+01,      /* I = 88 */
(PID.TID 0000.0001)                -5.970018005371094E+01,      /* I = 89 */
(PID.TID 0000.0001)                -5.688128280639648E+01,      /* I = 90 */
(PID.TID 0000.0001)                -5.427004241943359E+01,      /* I = 91 */
(PID.TID 0000.0001)                -5.187738418579102E+01,      /* I = 92 */
(PID.TID 0000.0001)                -4.971767807006836E+01,      /* I = 93 */
(PID.TID 0000.0001)                -4.781369781494141E+01,      /* I = 94 */
(PID.TID 0000.0001)                -4.620805358886719E+01,      /* I = 95 */
(PID.TID 0000.0001)                -4.500000000000000E+01,      /* I = 96 */
(PID.TID 0000.0001)                -4.439522171020508E+01,      /* I = 97 */
(PID.TID 0000.0001)                -4.416320800781250E+01,      /* I = 98 */
[...]
(PID.TID 0000.0001) %MON dynstat_eta_del2             =   1.4832536277182E+01
(PID.TID 0000.0001) %MON dynstat_uvel_max             =   3.8593489790032E+01
(PID.TID 0000.0001) %MON dynstat_uvel_min             =  -2.7542708830072E+01
(PID.TID 0000.0001) %MON dynstat_uvel_mean            =   1.1887062819691E+01
(PID.TID 0000.0001) %MON dynstat_uvel_sd              =   1.9206539175281E+01
(PID.TID 0000.0001) %MON dynstat_uvel_del2            =   3.4705572686726E-02
(PID.TID 0000.0001) %MON dynstat_vvel_max             =   3.8593491174899E+01
(PID.TID 0000.0001) %MON dynstat_vvel_min             =  -2.7542731179319E+01
(PID.TID 0000.0001) %MON dynstat_vvel_mean            =   1.1887062830440E+01
(PID.TID 0000.0001) %MON dynstat_vvel_sd              =   1.9206538831587E+01
(PID.TID 0000.0001) %MON dynstat_vvel_del2            =   3.4705625872785E-02
(PID.TID 0000.0001) %MON dynstat_wvel_max             =   7.2063938405619E-03
(PID.TID 0000.0001) %MON dynstat_wvel_min             =  -1.5838159155190E-02
(PID.TID 0000.0001) %MON dynstat_wvel_mean            =  -5.7267146513731E-13
(PID.TID 0000.0001) %MON dynstat_wvel_sd              =   7.0953420371139E-03
(PID.TID 0000.0001) %MON dynstat_wvel_del2            =   2.3075900681802E-05
(PID.TID 0000.0001) %MON dynstat_theta_max            =   3.0000000000000E+02
(PID.TID 0000.0001) %MON dynstat_theta_min            =   3.0000000000000E+02
(PID.TID 0000.0001) %MON dynstat_theta_mean           =   3.0000000000000E+02
(PID.TID 0000.0001) %MON dynstat_theta_sd             =   0.0000000000000E+00
(PID.TID 0000.0001) %MON dynstat_theta_del2           =   0.0000000000000E+00
(PID.TID 0000.0001) %MON dynstat_salt_max             =   9.7556822139339E-01
(PID.TID 0000.0001) %MON dynstat_salt_min             =  -2.6521367289368E-02
(PID.TID 0000.0001) %MON dynstat_salt_mean            =   6.6782781616231E-03
(PID.TID 0000.0001) %MON dynstat_salt_sd              =   6.1769961585593E-02
(PID.TID 0000.0001) %MON dynstat_salt_del2            =   4.9109719305749E-04
(PID.TID 0000.0001) %MON advcfl_uvel_max              =   3.5155875850960E-01
(PID.TID 0000.0001) %MON advcfl_vvel_max              =   3.5155866729808E-01
(PID.TID 0000.0001) %MON advcfl_wvel_max              =   3.8011581012203E-04
(PID.TID 0000.0001) %MON advcfl_W_hf_max              =   0.0000000000000E+00
(PID.TID 0000.0001) %MON pe_b_mean                    =   3.6246046086953E+02
(PID.TID 0000.0001) %MON ke_max                       =   7.4498367185028E+02
(PID.TID 0000.0001) %MON ke_mean                      =   5.1016591249018E+02
(PID.TID 0000.0001) %MON ke_vol                       =   5.0990436286464E+19
(PID.TID 0000.0001) %MON vort_r_min                   =  -1.2682040196135E-05
(PID.TID 0000.0001) %MON vort_r_max                   =   1.2682040047047E-05
(PID.TID 0000.0001) %MON vort_a_mean                  =   9.8054048547075E-21
(PID.TID 0000.0001) %MON vort_a_sd                    =   9.1062271682304E-05
(PID.TID 0000.0001) %MON vort_p_mean                  =   9.8054048547075E-21
(PID.TID 0000.0001) %MON vort_p_sd                    =   9.1062271682304E-05
(PID.TID 0000.0001) %MON surfExpan_theta_mean         =   7.3515562878114E-11
(PID.TID 0000.0001) %MON surfExpan_salt_mean          =  -2.3591503400935E-05
(PID.TID 0000.0001) %MON surfExpan_Heat_mean          =   6.1721666024155E-09
(PID.TID 0000.0001) %MON En_Budget_T2PE_mean          =   0.0000000000000E+00
(PID.TID 0000.0001) // =======================================================
(PID.TID 0000.0001) // End MONITOR dynamic field statistics
(PID.TID 0000.0001) // =======================================================
 Compute Stats, Diag. #     23  ETAN      vol(   0 ): 5.099E+14  Parms: SM      M1      
 Compute Stats, Diag. #    134  momKE     vol(   0 ): 5.099E+19  Parms: SM      MR      
 Compute Stats, Diag. #     27  SALT      vol(   0 ): 5.099E+19  Parms: SM      MR      
 Compute Stats, Diag. #     33  SALTSQ    vol(   0 ): 5.099E+19  Parms: SM P    MR      
 cg2d: Sum(rhs),rhsMax =   1.62905209804239E+03  1.38863402785328E+04
(PID.TID 0000.0001)                    cg2d_init_res =    4.03263069512972E-02
(PID.TID 0000.0001)                       cg2d_iters =    23
(PID.TID 0000.0001)                         cg2d_res =    9.92346719019595E-13
(PID.TID 0000.0001) // =======================================================
(PID.TID 0000.0001) // Begin MONITOR dynamic field statistics
(PID.TID 0000.0001) // =======================================================
(PID.TID 0000.0001) %MON time_tsnumber                =                    20
(PID.TID 0000.0001) %MON time_secondsf                =   2.4000000000000E+04
(PID.TID 0000.0001) %MON dynstat_eta_max              =  -3.2088677791347E+02
(PID.TID 0000.0001) %MON dynstat_eta_min              =  -1.9018804317579E+04
(PID.TID 0000.0001) %MON dynstat_eta_mean             =  -6.4575910788293E+03
(PID.TID 0000.0001) %MON dynstat_eta_sd               =   5.5604961222327E+03
(PID.TID 0000.0001) %MON dynstat_eta_del2             =   1.4865936911086E+01
(PID.TID 0000.0001) %MON dynstat_uvel_max             =   3.8593784684548E+01
(PID.TID 0000.0001) %MON dynstat_uvel_min             =  -2.7514894574394E+01
(PID.TID 0000.0001) %MON dynstat_uvel_mean            =   1.1882040829690E+01
(PID.TID 0000.0001) %MON dynstat_uvel_sd              =   1.9193815156838E+01
(PID.TID 0000.0001) %MON dynstat_uvel_del2            =   3.4696634366057E-02
(PID.TID 0000.0001) %MON dynstat_vvel_max             =   3.8593786094810E+01
(PID.TID 0000.0001) %MON dynstat_vvel_min             =  -2.7514920754226E+01
(PID.TID 0000.0001) %MON dynstat_vvel_mean            =   1.1882040829731E+01
(PID.TID 0000.0001) %MON dynstat_vvel_sd              =   1.9193814839201E+01
(PID.TID 0000.0001) %MON dynstat_vvel_del2            =   3.4696689219766E-02
(PID.TID 0000.0001) %MON dynstat_wvel_max             =   1.1720422595034E-02
(PID.TID 0000.0001) %MON dynstat_wvel_min             =  -1.7788964898563E-02
(PID.TID 0000.0001) %MON dynstat_wvel_mean            =   1.6328006122981E-12
(PID.TID 0000.0001) %MON dynstat_wvel_sd              =   9.6289599256758E-03
(PID.TID 0000.0001) %MON dynstat_wvel_del2            =   3.1229443726512E-05
(PID.TID 0000.0001) %MON dynstat_theta_max            =   3.0000000000000E+02
(PID.TID 0000.0001) %MON dynstat_theta_min            =   3.0000000000000E+02
(PID.TID 0000.0001) %MON dynstat_theta_mean           =   3.0000000000000E+02
(PID.TID 0000.0001) %MON dynstat_theta_sd             =   0.0000000000000E+00
(PID.TID 0000.0001) %MON dynstat_theta_del2           =   0.0000000000000E+00
(PID.TID 0000.0001) %MON dynstat_salt_max             =   9.8130817820381E-01
(PID.TID 0000.0001) %MON dynstat_salt_min             =  -2.7820015753484E-02
(PID.TID 0000.0001) %MON dynstat_salt_mean            =   6.6787018460401E-03
(PID.TID 0000.0001) %MON dynstat_salt_sd              =   6.1765480803781E-02
(PID.TID 0000.0001) %MON dynstat_salt_del2            =   4.9182462861516E-04
(PID.TID 0000.0001) %MON advcfl_uvel_max              =   3.5120938197514E-01
(PID.TID 0000.0001) %MON advcfl_vvel_max              =   3.5120928957013E-01
(PID.TID 0000.0001) %MON advcfl_wvel_max              =   4.2693514678022E-04
(PID.TID 0000.0001) %MON advcfl_W_hf_max              =   0.0000000000000E+00
(PID.TID 0000.0001) %MON pe_b_mean                    =   3.6309799802836E+02
(PID.TID 0000.0001) %MON ke_max                       =   7.4499173570319E+02
(PID.TID 0000.0001) %MON ke_mean                      =   5.0955801667096E+02
(PID.TID 0000.0001) %MON ke_vol                       =   5.0990436286464E+19
(PID.TID 0000.0001) %MON vort_r_min                   =  -1.2648941992595E-05
(PID.TID 0000.0001) %MON vort_r_max                   =   1.2648941840718E-05
(PID.TID 0000.0001) %MON vort_a_mean                  =  -1.4708107282061E-20
(PID.TID 0000.0001) %MON vort_a_sd                    =   9.1057975110690E-05
(PID.TID 0000.0001) %MON vort_p_mean                  =  -1.4708107282061E-20
(PID.TID 0000.0001) %MON vort_p_sd                    =   9.1057975110690E-05
(PID.TID 0000.0001) %MON surfExpan_theta_mean         =  -1.7356036532579E-10
(PID.TID 0000.0001) %MON surfExpan_salt_mean          =  -4.2282256357844E-05
(PID.TID 0000.0001) %MON surfExpan_Heat_mean          =  -1.4571709376602E-08
(PID.TID 0000.0001) %MON En_Budget_T2PE_mean          =   0.0000000000000E+00
(PID.TID 0000.0001) // =======================================================
(PID.TID 0000.0001) // End MONITOR dynamic field statistics
(PID.TID 0000.0001) // =======================================================
(PID.TID 0000.0001) %CHECKPOINT        20 ckptA
(PID.TID 0000.0001) DIAGSTATS_CLOSE_IO: close file: dynStDiag.0000000000.txt , unit=     9
(PID.TID 0000.0001)   Seconds in section "ALL                    [THE_MODEL_MAIN]":
(PID.TID 0000.0001)           User time:  3.65844399
(PID.TID 0000.0001)         System time:  0.159975998
(PID.TID 0000.0001)     Wall clock time:  3.91477394
(PID.TID 0000.0001)          No. starts: 1
(PID.TID 0000.0001)           No. stops: 1
(PID.TID 0000.0001)   Seconds in section "INITIALISE_FIXED       [THE_MODEL_MAIN]":
(PID.TID 0000.0001)           User time:  0.269959005
(PID.TID 0000.0001)         System time:  0.077987999
(PID.TID 0000.0001)     Wall clock time:  0.420463085
(PID.TID 0000.0001)          No. starts: 1
(PID.TID 0000.0001)           No. stops: 1
(PID.TID 0000.0001)   Seconds in section "THE_MAIN_LOOP          [THE_MODEL_MAIN]":
(PID.TID 0000.0001)           User time:  3.38848498
(PID.TID 0000.0001)         System time:  0.0809879974
(PID.TID 0000.0001)     Wall clock time:  3.49407816
(PID.TID 0000.0001)          No. starts: 1
(PID.TID 0000.0001)           No. stops: 1
(PID.TID 0000.0001)   Seconds in section "INITIALISE_VARIA    [THE_MAIN_LOOP]":
(PID.TID 0000.0001)           User time:  0.0719889998
(PID.TID 0000.0001)         System time:  0.0229969993
(PID.TID 0000.0001)     Wall clock time:  0.114709139
(PID.TID 0000.0001)          No. starts: 1
(PID.TID 0000.0001)           No. stops: 1
(PID.TID 0000.0001)   Seconds in section "MAIN LOOP           [THE_MAIN_LOOP]":
(PID.TID 0000.0001)           User time:  3.31649598
(PID.TID 0000.0001)         System time:  0.057990998
(PID.TID 0000.0001)     Wall clock time:  3.379246
(PID.TID 0000.0001)          No. starts: 1
(PID.TID 0000.0001)           No. stops: 1
(PID.TID 0000.0001)   Seconds in section "FORWARD_STEP        [THE_MAIN_LOOP]":
(PID.TID 0000.0001)           User time:  3.31649598
(PID.TID 0000.0001)         System time:  0.057990998
(PID.TID 0000.0001)     Wall clock time:  3.37838316
(PID.TID 0000.0001)          No. starts: 20
(PID.TID 0000.0001)           No. stops: 20
(PID.TID 0000.0001)   Seconds in section "DO_STATEVARS_DIAGS  [FORWARD_STEP]":
(PID.TID 0000.0001)           User time:  0.0159975588
(PID.TID 0000.0001)         System time:  0.
(PID.TID 0000.0001)     Wall clock time:  0.0135171413
(PID.TID 0000.0001)          No. starts: 40
(PID.TID 0000.0001)           No. stops: 40
(PID.TID 0000.0001)   Seconds in section "LOAD_FIELDS_DRIVER  [FORWARD_STEP]":
(PID.TID 0000.0001)           User time:  0.00199985504
(PID.TID 0000.0001)         System time:  0.
(PID.TID 0000.0001)     Wall clock time:  0.00244021416
(PID.TID 0000.0001)          No. starts: 20
(PID.TID 0000.0001)           No. stops: 20
(PID.TID 0000.0001)   Seconds in section "EXTERNAL_FLDS_LOAD [LOAD_FLDS_DRIVER]":
(PID.TID 0000.0001)           User time:  0.00199985504
(PID.TID 0000.0001)         System time:  0.
(PID.TID 0000.0001)     Wall clock time:  0.000826358795
(PID.TID 0000.0001)          No. starts: 20
(PID.TID 0000.0001)           No. stops: 20
(PID.TID 0000.0001)   Seconds in section "DO_ATMOSPHERIC_PHYS [FORWARD_STEP]":
(PID.TID 0000.0001)           User time:  0.
(PID.TID 0000.0001)         System time:  0.
(PID.TID 0000.0001)     Wall clock time:  0.000804185867
(PID.TID 0000.0001)          No. starts: 20
(PID.TID 0000.0001)           No. stops: 20
(PID.TID 0000.0001)   Seconds in section "DO_OCEANIC_PHYS     [FORWARD_STEP]":
(PID.TID 0000.0001)           User time:  0.
(PID.TID 0000.0001)         System time:  0.
(PID.TID 0000.0001)     Wall clock time:  0.000816345215
(PID.TID 0000.0001)          No. starts: 20
(PID.TID 0000.0001)           No. stops: 20
(PID.TID 0000.0001)   Seconds in section "THERMODYNAMICS      [FORWARD_STEP]":
(PID.TID 0000.0001)           User time:  0.166975737
(PID.TID 0000.0001)         System time:  0.
(PID.TID 0000.0001)     Wall clock time:  0.165667057
(PID.TID 0000.0001)          No. starts: 20
(PID.TID 0000.0001)           No. stops: 20
(PID.TID 0000.0001)   Seconds in section "DYNAMICS            [FORWARD_STEP]":
(PID.TID 0000.0001)           User time:  0.598907828
(PID.TID 0000.0001)         System time:  0.
(PID.TID 0000.0001)     Wall clock time:  0.600921869
(PID.TID 0000.0001)          No. starts: 20
(PID.TID 0000.0001)           No. stops: 20
(PID.TID 0000.0001)   Seconds in section "SOLVE_FOR_PRESSURE  [FORWARD_STEP]":
(PID.TID 0000.0001)           User time:  1.77173018
(PID.TID 0000.0001)         System time:  0.00200000405
(PID.TID 0000.0001)     Wall clock time:  1.77534723
(PID.TID 0000.0001)          No. starts: 20
(PID.TID 0000.0001)           No. stops: 20
(PID.TID 0000.0001)   Seconds in section "MOM_CORRECTION_STEP [FORWARD_STEP]":
(PID.TID 0000.0001)           User time:  0.06899032
(PID.TID 0000.0001)         System time:  0.
(PID.TID 0000.0001)     Wall clock time:  0.0706584454
(PID.TID 0000.0001)          No. starts: 20
(PID.TID 0000.0001)           No. stops: 20
(PID.TID 0000.0001)   Seconds in section "TRC_CORRECTION_STEP [FORWARD_STEP]":
(PID.TID 0000.0001)           User time:  0.0079998672
(PID.TID 0000.0001)         System time:  0.
(PID.TID 0000.0001)     Wall clock time:  0.00564193726
(PID.TID 0000.0001)          No. starts: 20
(PID.TID 0000.0001)           No. stops: 20
(PID.TID 0000.0001)   Seconds in section "BLOCKING_EXCHANGES  [FORWARD_STEP]":
(PID.TID 0000.0001)           User time:  0.0439922214
(PID.TID 0000.0001)         System time:  0.
(PID.TID 0000.0001)     Wall clock time:  0.0445981026
(PID.TID 0000.0001)          No. starts: 20
(PID.TID 0000.0001)           No. stops: 20
(PID.TID 0000.0001)   Seconds in section "MONITOR             [FORWARD_STEP]":
(PID.TID 0000.0001)           User time:  0.583910644
(PID.TID 0000.0001)         System time:  0.0019999966
(PID.TID 0000.0001)     Wall clock time:  0.588091135
(PID.TID 0000.0001)          No. starts: 20
(PID.TID 0000.0001)           No. stops: 20
(PID.TID 0000.0001)   Seconds in section "DO_THE_MODEL_IO     [FORWARD_STEP]":
(PID.TID 0000.0001)           User time:  0.0269961357
(PID.TID 0000.0001)         System time:  0.0259959996
(PID.TID 0000.0001)     Wall clock time:  0.051981926
(PID.TID 0000.0001)          No. starts: 20
(PID.TID 0000.0001)           No. stops: 20
(PID.TID 0000.0001)   Seconds in section "DO_WRITE_PICKUP     [FORWARD_STEP]":
(PID.TID 0000.0001)           User time:  0.0199968815
(PID.TID 0000.0001)         System time:  0.0259949937
(PID.TID 0000.0001)     Wall clock time:  0.0455543995
(PID.TID 0000.0001)          No. starts: 20
(PID.TID 0000.0001)           No. stops: 20
(PID.TID 0000.0001) // ======================================================
(PID.TID 0000.0001) // Tile <-> Tile communication statistics
(PID.TID 0000.0001) // ======================================================
(PID.TID 0000.0001) // o Tile number: 000001
(PID.TID 0000.0001) //         No. X exchanges =              0
(PID.TID 0000.0001) //            Max. X spins =              0
(PID.TID 0000.0001) //            Min. X spins =     1000000000
(PID.TID 0000.0001) //          Total. X spins =              0
(PID.TID 0000.0001) //            Avg. X spins =       0.00E+00
(PID.TID 0000.0001) //         No. Y exchanges =              0
(PID.TID 0000.0001) //            Max. Y spins =              0
(PID.TID 0000.0001) //            Min. Y spins =     1000000000
(PID.TID 0000.0001) //          Total. Y spins =              0
(PID.TID 0000.0001) //            Avg. Y spins =       0.00E+00
(PID.TID 0000.0001) // o Tile number: 000002
(PID.TID 0000.0001) //         No. X exchanges =              0
(PID.TID 0000.0001) //            Max. X spins =              0
(PID.TID 0000.0001) //            Min. X spins =     1000000000
(PID.TID 0000.0001) //          Total. X spins =              0
(PID.TID 0000.0001) //            Avg. X spins =       0.00E+00
(PID.TID 0000.0001) //         No. Y exchanges =              0
(PID.TID 0000.0001) //            Max. Y spins =              0
(PID.TID 0000.0001) //            Min. Y spins =     1000000000
(PID.TID 0000.0001) //          Total. Y spins =              0
(PID.TID 0000.0001) //            Avg. Y spins =       0.00E+00
(PID.TID 0000.0001) // o Tile number: 000003
(PID.TID 0000.0001) //         No. X exchanges =              0
(PID.TID 0000.0001) //            Max. X spins =              0
(PID.TID 0000.0001) //            Min. X spins =     1000000000
(PID.TID 0000.0001) //          Total. X spins =              0
(PID.TID 0000.0001) //            Avg. X spins =       0.00E+00
(PID.TID 0000.0001) //         No. Y exchanges =              0
(PID.TID 0000.0001) //            Max. Y spins =              0
(PID.TID 0000.0001) //            Min. Y spins =     1000000000
(PID.TID 0000.0001) //          Total. Y spins =              0
(PID.TID 0000.0001) //            Avg. Y spins =       0.00E+00
(PID.TID 0000.0001) // o Tile number: 000004
(PID.TID 0000.0001) //         No. X exchanges =              0
(PID.TID 0000.0001) //            Max. X spins =              0
(PID.TID 0000.0001) //            Min. X spins =     1000000000
(PID.TID 0000.0001) //          Total. X spins =              0
(PID.TID 0000.0001) //            Avg. X spins =       0.00E+00
(PID.TID 0000.0001) //         No. Y exchanges =              0
(PID.TID 0000.0001) //            Max. Y spins =              0
(PID.TID 0000.0001) //            Min. Y spins =     1000000000
(PID.TID 0000.0001) //          Total. Y spins =              0
(PID.TID 0000.0001) //            Avg. Y spins =       0.00E+00
(PID.TID 0000.0001) // o Tile number: 000005
(PID.TID 0000.0001) //         No. X exchanges =              0
(PID.TID 0000.0001) //            Max. X spins =              0
(PID.TID 0000.0001) //            Min. X spins =     1000000000
(PID.TID 0000.0001) //          Total. X spins =              0
(PID.TID 0000.0001) //            Avg. X spins =       0.00E+00
(PID.TID 0000.0001) //         No. Y exchanges =              0
(PID.TID 0000.0001) //            Max. Y spins =              0
(PID.TID 0000.0001) //            Min. Y spins =     1000000000
(PID.TID 0000.0001) //          Total. Y spins =              0
(PID.TID 0000.0001) //            Avg. Y spins =       0.00E+00
(PID.TID 0000.0001) // o Tile number: 000006
(PID.TID 0000.0001) //         No. X exchanges =              0
(PID.TID 0000.0001) //            Max. X spins =              0
(PID.TID 0000.0001) //            Min. X spins =     1000000000
(PID.TID 0000.0001) //          Total. X spins =              0
(PID.TID 0000.0001) //            Avg. X spins =       0.00E+00
(PID.TID 0000.0001) //         No. Y exchanges =              0
(PID.TID 0000.0001) //            Max. Y spins =              0
(PID.TID 0000.0001) //            Min. Y spins =     1000000000
(PID.TID 0000.0001) //          Total. Y spins =              0
(PID.TID 0000.0001) //            Avg. Y spins =       0.00E+00
(PID.TID 0000.0001) // o Thread number: 000001
(PID.TID 0000.0001) //            No. barriers =          19816
(PID.TID 0000.0001) //      Max. barrier spins =              1
(PID.TID 0000.0001) //      Min. barrier spins =              1
(PID.TID 0000.0001) //     Total barrier spins =          19816
(PID.TID 0000.0001) //      Avg. barrier spins =       1.00E+00
