(PID.TID 0000.0001) 
(PID.TID 0000.0001) // ======================================================
(PID.TID 0000.0001) //                      MITgcm UV
(PID.TID 0000.0001) //                      =========
(PID.TID 0000.0001) // ======================================================
(PID.TID 0000.0001) // execution environment starting up...
(PID.TID 0000.0001) 
(PID.TID 0000.0001) // MITgcmUV version:  checkpoint58p_post
(PID.TID 0000.0001) // Build user:        jmc
(PID.TID 0000.0001) // Build host:        faulks
(PID.TID 0000.0001) // Build date:        Tue Oct 17 18:15:04 EDT 2006
(PID.TID 0000.0001) 
(PID.TID 0000.0001) // =======================================================
(PID.TID 0000.0001) // Execution Environment parameter file "eedata"
(PID.TID 0000.0001) // =======================================================
(PID.TID 0000.0001) ># Example "eedata" file
(PID.TID 0000.0001) ># Lines beginning "#" are comments
(PID.TID 0000.0001) ># nTx - No. threads per process in X
(PID.TID 0000.0001) ># nTy - No. threads per process in Y
(PID.TID 0000.0001) > &EEPARMS
(PID.TID 0000.0001) > &
(PID.TID 0000.0001) ># Note: Some systems use & as the
(PID.TID 0000.0001) ># namelist terminator. Other systems
(PID.TID 0000.0001) ># use a / character (as shown here).
(PID.TID 0000.0001) 
(PID.TID 0000.0001) // =======================================================
(PID.TID 0000.0001) // Computational Grid Specification ( see files "SIZE.h" )
(PID.TID 0000.0001) //                                  ( and "eedata"       )
(PID.TID 0000.0001) // =======================================================
(PID.TID 0000.0001)      nPx =    1 ; /* No. processes in X */
(PID.TID 0000.0001)      nPy =    1 ; /* No. processes in Y */
(PID.TID 0000.0001)      nSx =    1 ; /* No. tiles in X per process */
(PID.TID 0000.0001)      nSy =    2 ; /* No. tiles in Y per process */
(PID.TID 0000.0001)      sNx =   50 ; /* Tile size in X */
(PID.TID 0000.0001)      sNy =   50 ; /* Tile size in Y */
(PID.TID 0000.0001)      OLx =    3 ; /* Tile overlap distance in X */
(PID.TID 0000.0001)      OLy =    3 ; /* Tile overlap distance in Y */
(PID.TID 0000.0001)      nTx =    1 ; /* No. threads in X per process */
(PID.TID 0000.0001)      nTy =    1 ; /* No. threads in Y per process */
(PID.TID 0000.0001)       Nr =   30 ; /* No. levels in the vertical   */
(PID.TID 0000.0001)       nX =   50 ; /* Total domain size in X ( = nPx*nSx*sNx ) */
(PID.TID 0000.0001)       nY =  100 ; /* Total domain size in Y ( = nPy*nSy*sNy ) */
(PID.TID 0000.0001)   nTiles =    2 ; /* Total no. tiles per process ( = nSx*nSy ) */
(PID.TID 0000.0001)   nProcs =    1 ; /* Total no. processes ( = nPx*nPy ) */
(PID.TID 0000.0001) nThreads =    1 ; /* Total no. threads per process ( = nTx*nTy ) */
(PID.TID 0000.0001) usingMPI =    F ; /* Flag used to control whether MPI is in use */
(PID.TID 0000.0001)                   /*  note: To execute a program with MPI calls */
(PID.TID 0000.0001)                   /*  it must be launched appropriately e.g     */
(PID.TID 0000.0001)                   /*  "mpirun -np 64 ......"                    */
(PID.TID 0000.0001) useCoupler=   F ; /* Flag used to control communications with */
(PID.TID 0000.0001)                   /*  other model components, through a coupler */
(PID.TID 0000.0001) 
(PID.TID 0000.0001) // ======================================================
(PID.TID 0000.0001) // Mapping of tiles to threads
(PID.TID 0000.0001) // ======================================================
(PID.TID 0000.0001) // -o- Thread   1, tiles (   1:   1,   1:   2)
(PID.TID 0000.0001) 
(PID.TID 0000.0001) // ======================================================
(PID.TID 0000.0001) // Tile <-> Tile connectvity table
(PID.TID 0000.0001) // ======================================================
(PID.TID 0000.0001) // Tile number: 000001 (process no. = 000001)
(PID.TID 0000.0001) //        WEST: Tile = 000001, Process = 000001, Comm = put
(PID.TID 0000.0001) //                bi = 000001, bj = 000001
(PID.TID 0000.0001) //        EAST: Tile = 000001, Process = 000001, Comm = put
(PID.TID 0000.0001) //                bi = 000001, bj = 000001
(PID.TID 0000.0001) //       SOUTH: Tile = 000002, Process = 000001, Comm = put
(PID.TID 0000.0001) //                bi = 000001, bj = 000002
(PID.TID 0000.0001) //       NORTH: Tile = 000002, Process = 000001, Comm = put
(PID.TID 0000.0001) //                bi = 000001, bj = 000002
(PID.TID 0000.0001) // Tile number: 000002 (process no. = 000001)
(PID.TID 0000.0001) //        WEST: Tile = 000002, Process = 000001, Comm = put
(PID.TID 0000.0001) //                bi = 000001, bj = 000002
(PID.TID 0000.0001) //        EAST: Tile = 000002, Process = 000001, Comm = put
(PID.TID 0000.0001) //                bi = 000001, bj = 000002
(PID.TID 0000.0001) //       SOUTH: Tile = 000001, Process = 000001, Comm = put
(PID.TID 0000.0001) //                bi = 000001, bj = 000001
(PID.TID 0000.0001) //       NORTH: Tile = 000001, Process = 000001, Comm = put
(PID.TID 0000.0001) //                bi = 000001, bj = 000001
(PID.TID 0000.0001) 
(PID.TID 0000.0001) // =======================================================
(PID.TID 0000.0001) // Model parameter file "data"
(PID.TID 0000.0001) // =======================================================
(PID.TID 0000.0001) ># ====================
(PID.TID 0000.0001) ># | Model parameters |
(PID.TID 0000.0001) ># ====================
(PID.TID 0000.0001) >#
(PID.TID 0000.0001) ># Continuous equation parameters
(PID.TID 0000.0001) > &PARM01
(PID.TID 0000.0001) > Tref = 30*-1.9,
(PID.TID 0000.0001) > Sref = 30*34.4,
(PID.TID 0000.0001) > viscAz=1.E-3,
(PID.TID 0000.0001) > viscAh=600.0,
(PID.TID 0000.0001) > no_slip_sides=.FALSE.,
(PID.TID 0000.0001) > diffKhT=100.0,
(PID.TID 0000.0001) > diffKzT=5.E-5,
(PID.TID 0000.0001) > diffKhS=100.0,
(PID.TID 0000.0001) > diffKzS=5.E-5,
(PID.TID 0000.0001) > bottomDragQuadratic=2.5E-3,
(PID.TID 0000.0001) > eosType='JMD95Z',
(PID.TID 0000.0001) > HeatCapacity_cp = 3974.0,
(PID.TID 0000.0001) > rhoConst=1030.,
(PID.TID 0000.0001) > rhoNil=1030.,
(PID.TID 0000.0001) > gravity=9.81,
(PID.TID 0000.0001) > gBaro=9.81,
(PID.TID 0000.0001) > convertFW2Salt = 33.4,
(PID.TID 0000.0001) > rigidLid=.FALSE.,
(PID.TID 0000.0001) > implicitFreeSurface=.TRUE.,
(PID.TID 0000.0001) > exactConserv=.true.,
(PID.TID 0000.0001) > hFacMin=0.05,
(PID.TID 0000.0001) > nonHydrostatic=.false.,
(PID.TID 0000.0001) > readBinaryPrec=64,
(PID.TID 0000.0001) > useCDScheme = .true.,
(PID.TID 0000.0001) > &
(PID.TID 0000.0001) >
(PID.TID 0000.0001) ># Elliptic solver parameters
(PID.TID 0000.0001) > &PARM02
(PID.TID 0000.0001) > cg2dMaxIters=1000,
(PID.TID 0000.0001) > cg2dTargetResidual=1.E-13,
(PID.TID 0000.0001) > cg3dMaxIters=400,
(PID.TID 0000.0001) > cg3dTargetResidual=1.E-13,
(PID.TID 0000.0001) > &
(PID.TID 0000.0001) >
(PID.TID 0000.0001) ># Time stepping parameters
(PID.TID 0000.0001) > &PARM03
(PID.TID 0000.0001) > niter0=0,
(PID.TID 0000.0001) > nTimeSteps=20,
(PID.TID 0000.0001) > deltaT=1800.0,
(PID.TID 0000.0001) > abEps=0.1,
(PID.TID 0000.0001) > cAdjFreq = -1.,
(PID.TID 0000.0001) > tauCD = 400000.,
(PID.TID 0000.0001) > pChkptFreq=0.0,
(PID.TID 0000.0001) > chkptFreq=0.0,
(PID.TID 0000.0001) > dumpFreq=0.0,
(PID.TID 0000.0001) > taveFreq=0.0,
(PID.TID 0000.0001) > monitorFreq=1.,
(PID.TID 0000.0001) > &
(PID.TID 0000.0001) >
(PID.TID 0000.0001) ># Gridding parameters
(PID.TID 0000.0001) > &PARM04
(PID.TID 0000.0001) > usingCartesianGrid=.FALSE.,
(PID.TID 0000.0001) > usingSphericalPolarGrid=.TRUE.,
(PID.TID 0000.0001) > phiMin = -80.0,
(PID.TID 0000.0001) > delX=50*0.3,
(PID.TID 0000.0001) > delY=100*0.1,
(PID.TID 0000.0001) > delZ=30*30.0,
(PID.TID 0000.0001) > &
(PID.TID 0000.0001) >
(PID.TID 0000.0001) ># Input datasets
(PID.TID 0000.0001) > &PARM05
(PID.TID 0000.0001) > bathyFile='bathy.box',
(PID.TID 0000.0001) > shelfIceFile='icetopo.exp1',
(PID.TID 0000.0001) > &
(PID.TID 0000.0001) 
(PID.TID 0000.0001) S/R INI_PARMS ; starts to read PARM01
(PID.TID 0000.0001) S/R INI_PARMS ; read PARM01 : OK
(PID.TID 0000.0001) S/R INI_PARMS ; starts to read PARM02
(PID.TID 0000.0001) S/R INI_PARMS ; read PARM02 : OK
(PID.TID 0000.0001) S/R INI_PARMS ; starts to read PARM03
(PID.TID 0000.0001) S/R INI_PARMS ; read PARM03 : OK
(PID.TID 0000.0001) S/R INI_PARMS ; starts to read PARM04
(PID.TID 0000.0001) S/R INI_PARMS ; read PARM04 : OK
(PID.TID 0000.0001) S/R INI_PARMS ; starts to read PARM05
(PID.TID 0000.0001) S/R INI_PARMS ; read PARM05 : OK
(PID.TID 0000.0001)  PACKAGES_BOOT: opening data.pkg
(PID.TID 0000.0001)  OPEN_COPY_DATA_FILE: opening file data.pkg
(PID.TID 0000.0001) // =======================================================
(PID.TID 0000.0001) // Parameter file "data.pkg"
(PID.TID 0000.0001) // =======================================================
(PID.TID 0000.0001) ># Packages
(PID.TID 0000.0001) > &PACKAGES
(PID.TID 0000.0001) > useMNC=.TRUE.,
(PID.TID 0000.0001) > useShelfIce=.true.,
(PID.TID 0000.0001) > &
(PID.TID 0000.0001) 
(PID.TID 0000.0001)  PACKAGES_BOOT: finished reading data.pkg
(PID.TID 0000.0001)  MNC_READPARMS: opening file 'data.mnc'
(PID.TID 0000.0001)  OPEN_COPY_DATA_FILE: opening file data.mnc
(PID.TID 0000.0001) // =======================================================
(PID.TID 0000.0001) // Parameter file "data.mnc"
(PID.TID 0000.0001) // =======================================================
(PID.TID 0000.0001) ># Example "data.mnc" file
(PID.TID 0000.0001) ># Lines beginning "#" are comments
(PID.TID 0000.0001) > &MNC_01
(PID.TID 0000.0001) ># mnc_echo_gvtypes=.FALSE.,
(PID.TID 0000.0001) ># mnc_use_indir=.FALSE.,
(PID.TID 0000.0001) > mnc_use_outdir=.TRUE.,
(PID.TID 0000.0001) > mnc_outdir_str='mnc_test_',
(PID.TID 0000.0001) >#mnc_outdir_date=.TRUE.,
(PID.TID 0000.0001) > monitor_mnc=.FALSE.,
(PID.TID 0000.0001) > timeave_mnc=.TRUE.,
(PID.TID 0000.0001) > snapshot_mnc=.TRUE.,
(PID.TID 0000.0001) ># pickup_write_mnc=.TRUE.,
(PID.TID 0000.0001) > &
(PID.TID 0000.0001) ># Note: Some systems use & as the
(PID.TID 0000.0001) ># namelist terminator. Other systems
(PID.TID 0000.0001) ># use a / character (as shown here).
(PID.TID 0000.0001) 
(PID.TID 0000.0001)  MNC_READPARMS: finished reading data.mnc
(PID.TID 0000.0001)  SHELFICE_READPARMS: opening data.shelfice
(PID.TID 0000.0001)  OPEN_COPY_DATA_FILE: opening file data.shelfice
(PID.TID 0000.0001) // =======================================================
(PID.TID 0000.0001) // Parameter file "data.shelfice"
(PID.TID 0000.0001) // =======================================================
(PID.TID 0000.0001) ># ===================================
(PID.TID 0000.0001) ># | Parameters for SHELFICE package |
(PID.TID 0000.0001) ># ===================================
(PID.TID 0000.0001) > &SHELFICE_PARM01
(PID.TID 0000.0001) > SHELFICEboundaryLayer = .TRUE.,
(PID.TID 0000.0001) > SHELFICEloadAnomalyFile = 'phi0surf.exp1.jmd95z',
(PID.TID 0000.0001) > no_slip_shelfice = .false.,
(PID.TID 0000.0001) > SHELFICEwriteState = .TRUE.,
(PID.TID 0000.0001) > &
(PID.TID 0000.0001) 
(PID.TID 0000.0001)  SHELFICE_READPARMS: finished reading data.shelfice
(PID.TID 0000.0001) SET_PARMS: done
(PID.TID 0000.0001) Enter INI_VERTICAL_GRID: setInterFDr=    T ; setCenterDr=    F
(PID.TID 0000.0001) %MON XC_max                       =   1.4850000000000E+01
(PID.TID 0000.0001) %MON XC_min                       =   1.5000000000000E-01
(PID.TID 0000.0001) %MON XC_mean                      =   7.5000000000000E+00
(PID.TID 0000.0001) %MON XC_sd                        =   4.3292609068985E+00
(PID.TID 0000.0001) %MON XG_max                       =   1.4700000000000E+01
(PID.TID 0000.0001) %MON XG_min                       =   1.1102230246252E-16
(PID.TID 0000.0001) %MON XG_mean                      =   7.3500000000000E+00
(PID.TID 0000.0001) %MON XG_sd                        =   4.3292609068985E+00
(PID.TID 0000.0001) %MON DXC_max                      =   1.1380125394806E+04
(PID.TID 0000.0001) %MON DXC_min                      =   5.8203914905589E+03
(PID.TID 0000.0001) %MON DXC_mean                     =   8.6215028627206E+03
(PID.TID 0000.0001) %MON DXC_sd                       =   1.6219001271572E+03
(PID.TID 0000.0001) %MON DXF_max                      =   1.1380125394806E+04
(PID.TID 0000.0001) %MON DXF_min                      =   5.8203914905589E+03
(PID.TID 0000.0001) %MON DXF_mean                     =   8.6215028627206E+03
(PID.TID 0000.0001) %MON DXF_sd                       =   1.6219001271572E+03
(PID.TID 0000.0001) %MON DXG_max                      =   1.1352761512017E+04
(PID.TID 0000.0001) %MON DXG_min                      =   5.7917296935586E+03
(PID.TID 0000.0001) %MON DXG_mean                     =   8.5934208253080E+03
(PID.TID 0000.0001) %MON DXG_sd                       =   1.6222785520817E+03
(PID.TID 0000.0001) %MON DXV_max                      =   1.1352761512017E+04
(PID.TID 0000.0001) %MON DXV_min                      =   5.7917296935586E+03
(PID.TID 0000.0001) %MON DXV_mean                     =   8.5934208253080E+03
(PID.TID 0000.0001) %MON DXV_sd                       =   1.6222785520817E+03
(PID.TID 0000.0001) %MON YC_max                       =  -7.0050000000001E+01
(PID.TID 0000.0001) %MON YC_min                       =  -7.9950000000000E+01
(PID.TID 0000.0001) %MON YC_mean                      =  -7.5000000000000E+01
(PID.TID 0000.0001) %MON YC_sd                        =   2.8866070047720E+00
(PID.TID 0000.0001) %MON YG_max                       =  -7.0100000000001E+01
(PID.TID 0000.0001) %MON YG_min                       =  -8.0000000000000E+01
(PID.TID 0000.0001) %MON YG_mean                      =  -7.5050000000000E+01
(PID.TID 0000.0001) %MON YG_sd                        =   2.8866070047720E+00
(PID.TID 0000.0001) %MON DYC_max                      =   1.1117747335204E+04
(PID.TID 0000.0001) %MON DYC_min                      =   1.1117747335204E+04
(PID.TID 0000.0001) %MON DYC_mean                     =   1.1117747335203E+04
(PID.TID 0000.0001) %MON DYC_sd                       =   6.0754246078432E-10
(PID.TID 0000.0001) %MON DYF_max                      =   1.1117747335204E+04
(PID.TID 0000.0001) %MON DYF_min                      =   1.1117747335204E+04
(PID.TID 0000.0001) %MON DYF_mean                     =   1.1117747335203E+04
(PID.TID 0000.0001) %MON DYF_sd                       =   6.0754246078432E-10
(PID.TID 0000.0001) %MON DYG_max                      =   1.1117747335204E+04
(PID.TID 0000.0001) %MON DYG_min                      =   1.1117747335204E+04
(PID.TID 0000.0001) %MON DYG_mean                     =   1.1117747335203E+04
(PID.TID 0000.0001) %MON DYG_sd                       =   6.0754246078432E-10
(PID.TID 0000.0001) %MON DYU_max                      =   1.1117747335204E+04
(PID.TID 0000.0001) %MON DYU_min                      =   1.1117747335204E+04
(PID.TID 0000.0001) %MON DYU_mean                     =   1.1117747335203E+04
(PID.TID 0000.0001) %MON DYU_sd                       =   6.0754246078432E-10
(PID.TID 0000.0001) %MON RA_max                       =   1.2652134272379E+08
(PID.TID 0000.0001) %MON RA_min                       =   6.4709633770803E+07
(PID.TID 0000.0001) %MON RA_mean                      =   9.5851678311588E+07
(PID.TID 0000.0001) %MON RA_sd                        =   1.8031873527991E+07
(PID.TID 0000.0001) %MON RAW_max                      =   1.2652134272379E+08
(PID.TID 0000.0001) %MON RAW_min                      =   6.4709633770803E+07
(PID.TID 0000.0001) %MON RAW_mean                     =   9.5851678311588E+07
(PID.TID 0000.0001) %MON RAW_sd                       =   1.8031873527991E+07
(PID.TID 0000.0001) %MON RAS_max                      =   1.2621711802744E+08
(PID.TID 0000.0001) %MON RAS_min                      =   6.4390979194019E+07
(PID.TID 0000.0001) %MON RAS_mean                     =   9.5539469354603E+07
(PID.TID 0000.0001) %MON RAS_sd                       =   1.8036080760153E+07
(PID.TID 0000.0001) %MON RAZ_max                      =   1.2621711802744E+08
(PID.TID 0000.0001) %MON RAZ_min                      =   6.4390979194019E+07
(PID.TID 0000.0001) %MON RAZ_mean                     =   9.5539469354603E+07
(PID.TID 0000.0001) %MON RAZ_sd                       =   1.8036080760153E+07
(PID.TID 0000.0001) %MON AngleCS_max                  =   1.0000000000000E+00
(PID.TID 0000.0001) %MON AngleCS_min                  =   1.0000000000000E+00
(PID.TID 0000.0001) %MON AngleCS_mean                 =   1.0000000000000E+00
(PID.TID 0000.0001) %MON AngleCS_sd                   =   0.0000000000000E+00
(PID.TID 0000.0001) %MON AngleSN_max                  =   0.0000000000000E+00
(PID.TID 0000.0001) %MON AngleSN_min                  =   0.0000000000000E+00
(PID.TID 0000.0001) %MON AngleSN_mean                 =   0.0000000000000E+00
(PID.TID 0000.0001) %MON AngleSN_sd                   =   0.0000000000000E+00
(PID.TID 0000.0001)  MDSREADFIELD: opening global file: bathy.box
(PID.TID 0000.0001)  MDSREADFIELD: opening global file: icetopo.exp1
(PID.TID 0000.0001) // =======================================================
(PID.TID 0000.0001) // Field Model R_low (ini_masks_etc) at iteration          1
(PID.TID 0000.0001) // CMIN =         -9.000000000000000E+02
(PID.TID 0000.0001) // CMAX =         -9.000000000000000E+02
(PID.TID 0000.0001) // CINT =          0.000000000000000E+00
(PID.TID 0000.0001) // SYMBOLS (CMIN->CMAX): -abcdefghijklmnopqrstuvwxyz+
(PID.TID 0000.0001) //                  0.0: .
(PID.TID 0000.0001) // RANGE I (Lo:Hi:Step):(  -2:  53:   1)
(PID.TID 0000.0001) // RANGE J (Lo:Hi:Step):( 103:  -2:  -1)
(PID.TID 0000.0001) // RANGE K (Lo:Hi:Step):(   1:   1:   1)
(PID.TID 0000.0001) // =======================================================
(PID.TID 0000.0001) // =======================================================
(PID.TID 0000.0001) // END OF FIELD                                          =
(PID.TID 0000.0001) // =======================================================
(PID.TID 0000.0001) 
(PID.TID 0000.0001) // =======================================================
(PID.TID 0000.0001) // Field Model Ro_surf (ini_masks_etc) at iteration          1
(PID.TID 0000.0001) // CMIN =         -6.812500000000010E+02
(PID.TID 0000.0001) // CMAX =         -2.000000000000000E+02
(PID.TID 0000.0001) // CINT =          1.782407407407411E+01
(PID.TID 0000.0001) // SYMBOLS (CMIN->CMAX): -abcdefghijklmnopqrstuvwxyz+
(PID.TID 0000.0001) //                  0.0: .
(PID.TID 0000.0001) // RANGE I (Lo:Hi:Step):(  -2:  53:   1)
(PID.TID 0000.0001) // RANGE J (Lo:Hi:Step):( 103:  -2:  -1)
(PID.TID 0000.0001) // RANGE K (Lo:Hi:Step):(   1:   1:   1)
(PID.TID 0000.0001) // =======================================================
(PID.TID 0000.0001) K =   1
(PID.TID 0000.0001) //                I=7       I=17      I=27      I=37      I=47
(PID.TID 0000.0001) // |--J--|210123456|890123456|890123456|890123456|890123456|890123
(PID.TID 0000.0001) //    103 aaa.aaaaaaaaaaaaaaaaaaaaaaaaaaaaaaaaaaaaaaaaaaaaaaaaa.aa
(PID.TID 0000.0001) //    102 ---.-------------------------------------------------.--
(PID.TID 0000.0001) //    101 ........................................................
(PID.TID 0000.0001) //    100 +++.+++++++++++++++++++++++++++++++++++++++++++++++++.++
(PID.TID 0000.0001) //     99 +++.+++++++++++++++++++++++++++++++++++++++++++++++++.++
(PID.TID 0000.0001) //     98 +++.+++++++++++++++++++++++++++++++++++++++++++++++++.++
(PID.TID 0000.0001) //     97 +++.+++++++++++++++++++++++++++++++++++++++++++++++++.++
(PID.TID 0000.0001) //     96 +++.+++++++++++++++++++++++++++++++++++++++++++++++++.++
(PID.TID 0000.0001) //     95 +++.+++++++++++++++++++++++++++++++++++++++++++++++++.++
(PID.TID 0000.0001) //     94 +++.+++++++++++++++++++++++++++++++++++++++++++++++++.++
(PID.TID 0000.0001) //     93 +++.+++++++++++++++++++++++++++++++++++++++++++++++++.++
(PID.TID 0000.0001) //     92 +++.+++++++++++++++++++++++++++++++++++++++++++++++++.++
(PID.TID 0000.0001) //     91 +++.+++++++++++++++++++++++++++++++++++++++++++++++++.++
(PID.TID 0000.0001) //     90 +++.+++++++++++++++++++++++++++++++++++++++++++++++++.++
(PID.TID 0000.0001) //     89 +++.+++++++++++++++++++++++++++++++++++++++++++++++++.++
(PID.TID 0000.0001) //     88 +++.+++++++++++++++++++++++++++++++++++++++++++++++++.++
(PID.TID 0000.0001) //     87 +++.+++++++++++++++++++++++++++++++++++++++++++++++++.++
(PID.TID 0000.0001) //     86 +++.+++++++++++++++++++++++++++++++++++++++++++++++++.++
(PID.TID 0000.0001) //     85 +++.+++++++++++++++++++++++++++++++++++++++++++++++++.++
(PID.TID 0000.0001) //     84 +++.+++++++++++++++++++++++++++++++++++++++++++++++++.++
(PID.TID 0000.0001) //     83 +++.+++++++++++++++++++++++++++++++++++++++++++++++++.++
(PID.TID 0000.0001) //     82 +++.+++++++++++++++++++++++++++++++++++++++++++++++++.++
(PID.TID 0000.0001) //     81 +++.+++++++++++++++++++++++++++++++++++++++++++++++++.++
(PID.TID 0000.0001) //     80 +++.+++++++++++++++++++++++++++++++++++++++++++++++++.++
(PID.TID 0000.0001) //     79 +++.+++++++++++++++++++++++++++++++++++++++++++++++++.++
(PID.TID 0000.0001) //     78 +++.+++++++++++++++++++++++++++++++++++++++++++++++++.++
(PID.TID 0000.0001) //     77 +++.+++++++++++++++++++++++++++++++++++++++++++++++++.++
(PID.TID 0000.0001) //     76 +++.+++++++++++++++++++++++++++++++++++++++++++++++++.++
(PID.TID 0000.0001) //     75 +++.+++++++++++++++++++++++++++++++++++++++++++++++++.++
(PID.TID 0000.0001) //     74 +++.+++++++++++++++++++++++++++++++++++++++++++++++++.++
(PID.TID 0000.0001) //     73 +++.+++++++++++++++++++++++++++++++++++++++++++++++++.++
(PID.TID 0000.0001) //     72 +++.+++++++++++++++++++++++++++++++++++++++++++++++++.++
(PID.TID 0000.0001) //     71 +++.+++++++++++++++++++++++++++++++++++++++++++++++++.++
(PID.TID 0000.0001) //     70 +++.+++++++++++++++++++++++++++++++++++++++++++++++++.++
(PID.TID 0000.0001) //     69 +++.+++++++++++++++++++++++++++++++++++++++++++++++++.++
(PID.TID 0000.0001) //     68 +++.+++++++++++++++++++++++++++++++++++++++++++++++++.++
(PID.TID 0000.0001) //     67 +++.+++++++++++++++++++++++++++++++++++++++++++++++++.++
(PID.TID 0000.0001) //     66 +++.+++++++++++++++++++++++++++++++++++++++++++++++++.++
(PID.TID 0000.0001) //     65 +++.+++++++++++++++++++++++++++++++++++++++++++++++++.++
(PID.TID 0000.0001) //     64 +++.+++++++++++++++++++++++++++++++++++++++++++++++++.++
(PID.TID 0000.0001) //     63 +++.+++++++++++++++++++++++++++++++++++++++++++++++++.++
(PID.TID 0000.0001) //     62 +++.+++++++++++++++++++++++++++++++++++++++++++++++++.++
(PID.TID 0000.0001) //     61 +++.+++++++++++++++++++++++++++++++++++++++++++++++++.++
(PID.TID 0000.0001) //     60 +++.+++++++++++++++++++++++++++++++++++++++++++++++++.++
(PID.TID 0000.0001) //     59 +++.+++++++++++++++++++++++++++++++++++++++++++++++++.++
(PID.TID 0000.0001) //     58 +++.+++++++++++++++++++++++++++++++++++++++++++++++++.++
(PID.TID 0000.0001) //     57 +++.+++++++++++++++++++++++++++++++++++++++++++++++++.++
(PID.TID 0000.0001) //     56 +++.+++++++++++++++++++++++++++++++++++++++++++++++++.++
(PID.TID 0000.0001) //     55 +++.+++++++++++++++++++++++++++++++++++++++++++++++++.++
(PID.TID 0000.0001) //     54 +++.+++++++++++++++++++++++++++++++++++++++++++++++++.++
(PID.TID 0000.0001) //     53 +++.+++++++++++++++++++++++++++++++++++++++++++++++++.++
(PID.TID 0000.0001) //     52 +++.+++++++++++++++++++++++++++++++++++++++++++++++++.++
(PID.TID 0000.0001) //     51 +++.+++++++++++++++++++++++++++++++++++++++++++++++++.++
(PID.TID 0000.0001) //     50 +++.+++++++++++++++++++++++++++++++++++++++++++++++++.++
(PID.TID 0000.0001) //     49 +++.+++++++++++++++++++++++++++++++++++++++++++++++++.++
(PID.TID 0000.0001) //     48 +++.+++++++++++++++++++++++++++++++++++++++++++++++++.++
(PID.TID 0000.0001) //     53 +++.+++++++++++++++++++++++++++++++++++++++++++++++++.++
(PID.TID 0000.0001) //     52 +++.+++++++++++++++++++++++++++++++++++++++++++++++++.++
(PID.TID 0000.0001) //     51 +++.+++++++++++++++++++++++++++++++++++++++++++++++++.++
(PID.TID 0000.0001) //     50 +++.+++++++++++++++++++++++++++++++++++++++++++++++++.++
(PID.TID 0000.0001) //     49 +++.+++++++++++++++++++++++++++++++++++++++++++++++++.++
(PID.TID 0000.0001) //     48 +++.+++++++++++++++++++++++++++++++++++++++++++++++++.++
(PID.TID 0000.0001) //     47 +++.+++++++++++++++++++++++++++++++++++++++++++++++++.++
(PID.TID 0000.0001) //     46 +++.+++++++++++++++++++++++++++++++++++++++++++++++++.++
(PID.TID 0000.0001) //     45 +++.+++++++++++++++++++++++++++++++++++++++++++++++++.++
(PID.TID 0000.0001) //     44 +++.+++++++++++++++++++++++++++++++++++++++++++++++++.++
(PID.TID 0000.0001) //     43 +++.+++++++++++++++++++++++++++++++++++++++++++++++++.++
(PID.TID 0000.0001) //     42 +++.+++++++++++++++++++++++++++++++++++++++++++++++++.++
(PID.TID 0000.0001) //     41 +++.+++++++++++++++++++++++++++++++++++++++++++++++++.++
(PID.TID 0000.0001) //     40 +++.+++++++++++++++++++++++++++++++++++++++++++++++++.++
(PID.TID 0000.0001) //     39 zzz.zzzzzzzzzzzzzzzzzzzzzzzzzzzzzzzzzzzzzzzzzzzzzzzzz.zz
(PID.TID 0000.0001) //     38 yyy.yyyyyyyyyyyyyyyyyyyyyyyyyyyyyyyyyyyyyyyyyyyyyyyyy.yy
(PID.TID 0000.0001) //     37 yyy.yyyyyyyyyyyyyyyyyyyyyyyyyyyyyyyyyyyyyyyyyyyyyyyyy.yy
(PID.TID 0000.0001) //     36 xxx.xxxxxxxxxxxxxxxxxxxxxxxxxxxxxxxxxxxxxxxxxxxxxxxxx.xx
(PID.TID 0000.0001) //     35 www.wwwwwwwwwwwwwwwwwwwwwwwwwwwwwwwwwwwwwwwwwwwwwwwww.ww
(PID.TID 0000.0001) //     34 vvv.vvvvvvvvvvvvvvvvvvvvvvvvvvvvvvvvvvvvvvvvvvvvvvvvv.vv
(PID.TID 0000.0001) //     33 vvv.vvvvvvvvvvvvvvvvvvvvvvvvvvvvvvvvvvvvvvvvvvvvvvvvv.vv
(PID.TID 0000.0001) //     32 uuu.uuuuuuuuuuuuuuuuuuuuuuuuuuuuuuuuuuuuuuuuuuuuuuuuu.uu
(PID.TID 0000.0001) //     31 ttt.ttttttttttttttttttttttttttttttttttttttttttttttttt.tt
(PID.TID 0000.0001) //     30 ttt.ttttttttttttttttttttttttttttttttttttttttttttttttt.tt
(PID.TID 0000.0001) //     29 sss.sssssssssssssssssssssssssssssssssssssssssssssssss.ss
(PID.TID 0000.0001) //     28 rrr.rrrrrrrrrrrrrrrrrrrrrrrrrrrrrrrrrrrrrrrrrrrrrrrrr.rr
(PID.TID 0000.0001) //     27 rrr.rrrrrrrrrrrrrrrrrrrrrrrrrrrrrrrrrrrrrrrrrrrrrrrrr.rr
(PID.TID 0000.0001) //     26 qqq.qqqqqqqqqqqqqqqqqqqqqqqqqqqqqqqqqqqqqqqqqqqqqqqqq.qq
(PID.TID 0000.0001) //     25 ppp.ppppppppppppppppppppppppppppppppppppppppppppppppp.pp
(PID.TID 0000.0001) //     24 ooo.ooooooooooooooooooooooooooooooooooooooooooooooooo.oo
(PID.TID 0000.0001) //     23 ooo.ooooooooooooooooooooooooooooooooooooooooooooooooo.oo
(PID.TID 0000.0001) //     22 nnn.nnnnnnnnnnnnnnnnnnnnnnnnnnnnnnnnnnnnnnnnnnnnnnnnn.nn
(PID.TID 0000.0001) //     21 mmm.mmmmmmmmmmmmmmmmmmmmmmmmmmmmmmmmmmmmmmmmmmmmmmmmm.mm
(PID.TID 0000.0001) //     20 mmm.mmmmmmmmmmmmmmmmmmmmmmmmmmmmmmmmmmmmmmmmmmmmmmmmm.mm
(PID.TID 0000.0001) //     19 lll.lllllllllllllllllllllllllllllllllllllllllllllllll.ll
(PID.TID 0000.0001) //     18 kkk.kkkkkkkkkkkkkkkkkkkkkkkkkkkkkkkkkkkkkkkkkkkkkkkkk.kk
(PID.TID 0000.0001) //     17 kkk.kkkkkkkkkkkkkkkkkkkkkkkkkkkkkkkkkkkkkkkkkkkkkkkkk.kk
(PID.TID 0000.0001) //     16 jjj.jjjjjjjjjjjjjjjjjjjjjjjjjjjjjjjjjjjjjjjjjjjjjjjjj.jj
(PID.TID 0000.0001) //     15 iii.iiiiiiiiiiiiiiiiiiiiiiiiiiiiiiiiiiiiiiiiiiiiiiiii.ii
(PID.TID 0000.0001) //     14 hhh.hhhhhhhhhhhhhhhhhhhhhhhhhhhhhhhhhhhhhhhhhhhhhhhhh.hh
(PID.TID 0000.0001) //     13 hhh.hhhhhhhhhhhhhhhhhhhhhhhhhhhhhhhhhhhhhhhhhhhhhhhhh.hh
(PID.TID 0000.0001) //     12 ggg.ggggggggggggggggggggggggggggggggggggggggggggggggg.gg
(PID.TID 0000.0001) //     11 fff.fffffffffffffffffffffffffffffffffffffffffffffffff.ff
(PID.TID 0000.0001) //     10 fff.fffffffffffffffffffffffffffffffffffffffffffffffff.ff
(PID.TID 0000.0001) //      9 eee.eeeeeeeeeeeeeeeeeeeeeeeeeeeeeeeeeeeeeeeeeeeeeeeee.ee
(PID.TID 0000.0001) //      8 ddd.ddddddddddddddddddddddddddddddddddddddddddddddddd.dd
(PID.TID 0000.0001) //      7 ddd.ddddddddddddddddddddddddddddddddddddddddddddddddd.dd
(PID.TID 0000.0001) //      6 ccc.ccccccccccccccccccccccccccccccccccccccccccccccccc.cc
(PID.TID 0000.0001) //      5 bbb.bbbbbbbbbbbbbbbbbbbbbbbbbbbbbbbbbbbbbbbbbbbbbbbbb.bb
(PID.TID 0000.0001) //      4 aaa.aaaaaaaaaaaaaaaaaaaaaaaaaaaaaaaaaaaaaaaaaaaaaaaaa.aa
(PID.TID 0000.0001) //      3 aaa.aaaaaaaaaaaaaaaaaaaaaaaaaaaaaaaaaaaaaaaaaaaaaaaaa.aa
(PID.TID 0000.0001) //      2 ---.-------------------------------------------------.--
(PID.TID 0000.0001) //      1 ........................................................
(PID.TID 0000.0001) //      0 +++.+++++++++++++++++++++++++++++++++++++++++++++++++.++
(PID.TID 0000.0001) //     -1 +++.+++++++++++++++++++++++++++++++++++++++++++++++++.++
(PID.TID 0000.0001) //     -2 +++.+++++++++++++++++++++++++++++++++++++++++++++++++.++
(PID.TID 0000.0001) // =======================================================
(PID.TID 0000.0001) // END OF FIELD                                          =
(PID.TID 0000.0001) // =======================================================
(PID.TID 0000.0001) 
(PID.TID 0000.0001) // =======================================================
(PID.TID 0000.0001) // Field hFacC at iteration          1
(PID.TID 0000.0001) // CMIN =          1.000000000000000E+32
(PID.TID 0000.0001) // CMAX =         -1.000000000000000E+32
(PID.TID 0000.0001) // CINT =          0.000000000000000E+00
(PID.TID 0000.0001) // SYMBOLS (CMIN->CMAX): -abcdefghijklmnopqrstuvwxyz+
(PID.TID 0000.0001) //                  0.0: .
(PID.TID 0000.0001) // RANGE I (Lo:Hi:Step):(  -2:  53:   1)
(PID.TID 0000.0001) // RANGE J (Lo:Hi:Step):( 103:  -2:  -1)
(PID.TID 0000.0001) // RANGE K (Lo:Hi:Step):(   1:   1:   1)
(PID.TID 0000.0001) // =======================================================
(PID.TID 0000.0001) // =======================================================
(PID.TID 0000.0001) // END OF FIELD                                          =
(PID.TID 0000.0001) // =======================================================
(PID.TID 0000.0001) 
(PID.TID 0000.0001) // =======================================================
(PID.TID 0000.0001) // Field hFacW at iteration          1
(PID.TID 0000.0001) // CMIN =          1.000000000000000E+32
(PID.TID 0000.0001) // CMAX =         -1.000000000000000E+32
(PID.TID 0000.0001) // CINT =          0.000000000000000E+00
(PID.TID 0000.0001) // SYMBOLS (CMIN->CMAX): -abcdefghijklmnopqrstuvwxyz+
(PID.TID 0000.0001) //                  0.0: .
(PID.TID 0000.0001) // RANGE I (Lo:Hi:Step):(  -2:  53:   1)
(PID.TID 0000.0001) // RANGE J (Lo:Hi:Step):( 103:  -2:  -1)
(PID.TID 0000.0001) // RANGE K (Lo:Hi:Step):(   1:   1:   1)
(PID.TID 0000.0001) // =======================================================
(PID.TID 0000.0001) // =======================================================
(PID.TID 0000.0001) // END OF FIELD                                          =
(PID.TID 0000.0001) // =======================================================
(PID.TID 0000.0001) 
(PID.TID 0000.0001) // =======================================================
(PID.TID 0000.0001) // Field hFacS at iteration          1
(PID.TID 0000.0001) // CMIN =          1.000000000000000E+32
(PID.TID 0000.0001) // CMAX =         -1.000000000000000E+32
(PID.TID 0000.0001) // CINT =          0.000000000000000E+00
(PID.TID 0000.0001) // SYMBOLS (CMIN->CMAX): -abcdefghijklmnopqrstuvwxyz+
(PID.TID 0000.0001) //                  0.0: .
(PID.TID 0000.0001) // RANGE I (Lo:Hi:Step):(  -2:  53:   1)
(PID.TID 0000.0001) // RANGE J (Lo:Hi:Step):( 103:  -2:  -1)
(PID.TID 0000.0001) // RANGE K (Lo:Hi:Step):(   1:   1:   1)
(PID.TID 0000.0001) // =======================================================
(PID.TID 0000.0001) // =======================================================
(PID.TID 0000.0001) // END OF FIELD                                          =
(PID.TID 0000.0001) // =======================================================
(PID.TID 0000.0001) 
(PID.TID 0000.0001) 
(PID.TID 0000.0001) // ===================================
(PID.TID 0000.0001) // GAD parameters :
(PID.TID 0000.0001) // ===================================
(PID.TID 0000.0001) tempAdvScheme =   /* Temp. Horiz.Advection scheme selector */
(PID.TID 0000.0001)                       2
(PID.TID 0000.0001)     ;
(PID.TID 0000.0001) tempVertAdvScheme =   /* Temp. Vert. Advection scheme selector */
(PID.TID 0000.0001)                       2
(PID.TID 0000.0001)     ;
(PID.TID 0000.0001) tempMultiDimAdvec =   /* use Muti-Dim Advec method for Temp */
(PID.TID 0000.0001)                   F
(PID.TID 0000.0001)     ;
(PID.TID 0000.0001) AdamsBashforthGt =   /* apply Adams-Bashforth extrapolation on Gt */
(PID.TID 0000.0001)                   T
(PID.TID 0000.0001)     ;
(PID.TID 0000.0001) AdamsBashforth_T =   /* apply Adams-Bashforth extrapolation on Temp */
(PID.TID 0000.0001)                   F
(PID.TID 0000.0001)     ;
(PID.TID 0000.0001) saltAdvScheme =   /* Salt. Horiz.advection scheme selector */
(PID.TID 0000.0001)                       2
(PID.TID 0000.0001)     ;
(PID.TID 0000.0001) saltVertAdvScheme =   /* Salt. Vert. Advection scheme selector */
(PID.TID 0000.0001)                       2
(PID.TID 0000.0001)     ;
(PID.TID 0000.0001) saltMultiDimAdvec =   /* use Muti-Dim Advec method for Salt */
(PID.TID 0000.0001)                   F
(PID.TID 0000.0001)     ;
(PID.TID 0000.0001) AdamsBashforthGs =   /* apply Adams-Bashforth extrapolation on Gs */
(PID.TID 0000.0001)                   T
(PID.TID 0000.0001)     ;
(PID.TID 0000.0001) AdamsBashforth_S =   /* apply Adams-Bashforth extrapolation on Salt */
(PID.TID 0000.0001)                   F
(PID.TID 0000.0001)     ;
(PID.TID 0000.0001) // ===================================
(PID.TID 0000.0001)  MDSREADFIELD: opening global file: phi0surf.exp1.jmd95z
(PID.TID 0000.0001) SHELFICE_CHECK: #define ALLOW_SHELFICE
(PID.TID 0000.0001) %MON fCori_max                    =  -1.3709057042516E-04
(PID.TID 0000.0001) %MON fCori_min                    =  -1.4360464034757E-04
(PID.TID 0000.0001) %MON fCori_mean                   =  -1.4069429304699E-04
(PID.TID 0000.0001) %MON fCori_sd                     =   1.9069739624987E-06
(PID.TID 0000.0001) %MON fCoriG_max                   =  -1.3713394327439E-04
(PID.TID 0000.0001) %MON fCoriG_min                   =  -1.4362679550910E-04
(PID.TID 0000.0001) %MON fCoriG_mean                  =  -1.4072713798624E-04
(PID.TID 0000.0001) %MON fCoriG_sd                    =   1.9008093726821E-06
(PID.TID 0000.0001) %MON fCoriCos_max                 =   4.9761447480159E-05
(PID.TID 0000.0001) %MON fCoriCos_min                 =   2.5450607565678E-05
(PID.TID 0000.0001) %MON fCoriCos_mean                =   3.7698922201606E-05
(PID.TID 0000.0001) %MON fCoriCos_sd                  =   7.0920218535054E-06
(PID.TID 0000.0001) INI_CG2D: CG2D normalisation factor =  1.0404366262810520E-03
(PID.TID 0000.0001) 
(PID.TID 0000.0001) CONFIG_CHECK: OK
(PID.TID 0000.0001) // =======================================================
(PID.TID 0000.0001) // Model configuration
(PID.TID 0000.0001) // =======================================================
(PID.TID 0000.0001) //
(PID.TID 0000.0001) // "Physical" paramters ( PARM01 in namelist )
(PID.TID 0000.0001) //
(PID.TID 0000.0001) buoyancyRelation = OCEANIC
(PID.TID 0000.0001) fluidIsAir  =  /* fluid major constituent is Air */
(PID.TID 0000.0001)                   F
(PID.TID 0000.0001)     ;
(PID.TID 0000.0001) fluidIsWater=  /* fluid major constituent is Water */
(PID.TID 0000.0001)                   T
(PID.TID 0000.0001)     ;
(PID.TID 0000.0001) usingPCoords =  /* use p (or p*) vertical coordinate */
(PID.TID 0000.0001)                   F
(PID.TID 0000.0001)     ;
(PID.TID 0000.0001) usingZCoords =  /* use z (or z*) vertical coordinate */
(PID.TID 0000.0001)                   T
(PID.TID 0000.0001)     ;
(PID.TID 0000.0001) tRef =   /* Reference temperature profile ( oC or K ) */
(PID.TID 0000.0001)    30 @ -1.900000000000000E+00              /* K =  1: 30 */
(PID.TID 0000.0001)     ;
(PID.TID 0000.0001) sRef =   /* Reference salinity profile ( psu ) */
(PID.TID 0000.0001)    30 @  3.440000000000000E+01              /* K =  1: 30 */
(PID.TID 0000.0001)     ;
(PID.TID 0000.0001) viscAh =   /* Lateral eddy viscosity ( m^2/s ) */
(PID.TID 0000.0001)                 6.000000000000000E+02
(PID.TID 0000.0001)     ;
(PID.TID 0000.0001) viscAhMax =   /* Maximum lateral eddy viscosity ( m^2/s ) */
(PID.TID 0000.0001)                 1.000000000000000E+21
(PID.TID 0000.0001)     ;
(PID.TID 0000.0001) viscAhGrid =   /* Grid dependent lateral eddy viscosity ( non-dim. ) */
(PID.TID 0000.0001)                 0.000000000000000E+00
(PID.TID 0000.0001)     ;
(PID.TID 0000.0001) useFullLeith =   /* Use Full Form of Leith Viscosity on/off flag*/
(PID.TID 0000.0001)                   F
(PID.TID 0000.0001)     ;
(PID.TID 0000.0001) useStrainTensionVisc =   /* Use StrainTension Form of Viscous Operator on/off flag*/
(PID.TID 0000.0001)                   F
(PID.TID 0000.0001)     ;
(PID.TID 0000.0001) useAreaViscLength =   /* Use area for visc length instead of geom. mean*/
(PID.TID 0000.0001)                   F
(PID.TID 0000.0001)     ;
(PID.TID 0000.0001) viscC2leith = /* Leith harmonic visc. factor (on grad(vort),non-dim.) */
(PID.TID 0000.0001)                 0.000000000000000E+00
(PID.TID 0000.0001)     ;
(PID.TID 0000.0001) viscC2leithD = /* Leith harmonic viscosity factor (on grad(div),non-dim.) */
(PID.TID 0000.0001)                 0.000000000000000E+00
(PID.TID 0000.0001)     ;
(PID.TID 0000.0001) viscC2smag =   /* Smagorinsky harmonic viscosity factor (non-dim.) */
(PID.TID 0000.0001)                 0.000000000000000E+00
(PID.TID 0000.0001)     ;
(PID.TID 0000.0001) viscA4 =   /* Lateral biharmonic viscosity ( m^4/s ) */
(PID.TID 0000.0001)                 0.000000000000000E+00
(PID.TID 0000.0001)     ;
(PID.TID 0000.0001) viscA4Max =   /* Maximum biharmonic viscosity ( m^2/s ) */
(PID.TID 0000.0001)                 1.000000000000000E+21
(PID.TID 0000.0001)     ;
(PID.TID 0000.0001) viscA4Grid =   /* Grid dependent biharmonic viscosity ( non-dim. ) */
(PID.TID 0000.0001)                 0.000000000000000E+00
(PID.TID 0000.0001)     ;
(PID.TID 0000.0001) viscC4leith = /* Leith biharm viscosity factor (on grad(vort), non-dim.) */
(PID.TID 0000.0001)                 0.000000000000000E+00
(PID.TID 0000.0001)     ;
(PID.TID 0000.0001) viscC4leithD = /* Leith biharm viscosity factor (on grad(div), non-dim.) */
(PID.TID 0000.0001)                 0.000000000000000E+00
(PID.TID 0000.0001)     ;
(PID.TID 0000.0001) viscC4Smag = /* Smagorinsky biharm viscosity factor (non-dim) */
(PID.TID 0000.0001)                 0.000000000000000E+00
(PID.TID 0000.0001)     ;
(PID.TID 0000.0001) no_slip_sides =  /* Viscous BCs: No-slip sides */
(PID.TID 0000.0001)                   F
(PID.TID 0000.0001)     ;
(PID.TID 0000.0001) sideDragFactor = /* side-drag scaling factor (non-dim) */
(PID.TID 0000.0001)                 2.000000000000000E+00
(PID.TID 0000.0001)     ;
(PID.TID 0000.0001) viscAr =   /* Vertical eddy viscosity ( units of r^2/s ) */
(PID.TID 0000.0001)                 1.000000000000000E-03
(PID.TID 0000.0001)     ;
(PID.TID 0000.0001) no_slip_bottom =  /* Viscous BCs: No-slip bottom */
(PID.TID 0000.0001)                   T
(PID.TID 0000.0001)     ;
(PID.TID 0000.0001) bottomDragLinear = /* linear bottom-drag coefficient ( 1/s ) */
(PID.TID 0000.0001)                 0.000000000000000E+00
(PID.TID 0000.0001)     ;
(PID.TID 0000.0001) bottomDragQuadratic = /* quadratic bottom-drag coeff. ( 1/m ) */
(PID.TID 0000.0001)                 2.500000000000000E-03
(PID.TID 0000.0001)     ;
(PID.TID 0000.0001) diffKhT =   /* Laplacian diffusion of heat laterally ( m^2/s ) */
(PID.TID 0000.0001)                 1.000000000000000E+02
(PID.TID 0000.0001)     ;
(PID.TID 0000.0001) diffK4T =   /* Bihaarmonic diffusion of heat laterally ( m^4/s ) */
(PID.TID 0000.0001)                 0.000000000000000E+00
(PID.TID 0000.0001)     ;
(PID.TID 0000.0001) diffKhS =   /* Laplacian diffusion of salt laterally ( m^2/s ) */
(PID.TID 0000.0001)                 1.000000000000000E+02
(PID.TID 0000.0001)     ;
(PID.TID 0000.0001) diffK4S =   /* Bihaarmonic diffusion of salt laterally ( m^4/s ) */
(PID.TID 0000.0001)                 0.000000000000000E+00
(PID.TID 0000.0001)     ;
(PID.TID 0000.0001) diffKrNrT = /* vertical profile of vertical diffusion of Temp ( m^2/s )*/
(PID.TID 0000.0001)    30 @  5.000000000000000E-05              /* K =  1: 30 */
(PID.TID 0000.0001)     ;
(PID.TID 0000.0001) diffKrNrS = /* vertical profile of vertical diffusion of Salt ( m^2/s )*/
(PID.TID 0000.0001)    30 @  5.000000000000000E-05              /* K =  1: 30 */
(PID.TID 0000.0001)     ;
(PID.TID 0000.0001) diffKrBL79surf =   /* Surface diffusion for Bryan and Lewis 1979 ( m^2/s ) */
(PID.TID 0000.0001)                 0.000000000000000E+00
(PID.TID 0000.0001)     ;
(PID.TID 0000.0001) diffKrBL79deep =   /* Deep diffusion for Bryan and Lewis 1979 ( m^2/s ) */
(PID.TID 0000.0001)                 0.000000000000000E+00
(PID.TID 0000.0001)     ;
(PID.TID 0000.0001) diffKrBL79scl =   /* Depth scale for Bryan and Lewis 1979 ( m ) */
(PID.TID 0000.0001)                 2.000000000000000E+02
(PID.TID 0000.0001)     ;
(PID.TID 0000.0001) diffKrBL79Ho =   /* Turning depth for Bryan and Lewis 1979 ( m ) */
(PID.TID 0000.0001)                -2.000000000000000E+03
(PID.TID 0000.0001)     ;
(PID.TID 0000.0001) Equation of State : eosType = JMD95Z ;
(PID.TID 0000.0001) tAlpha =   /* Linear EOS thermal expansion coefficient ( 1/oC ) */
(PID.TID 0000.0001)                 1.234567000000000E+05
(PID.TID 0000.0001)     ;
(PID.TID 0000.0001) sBeta =   /* Linear EOS haline contraction coefficient ( 1/psu ) */
(PID.TID 0000.0001)                 1.234567000000000E+05
(PID.TID 0000.0001)     ;
(PID.TID 0000.0001) rhonil =   /* Reference density ( kg/m^3 ) */
(PID.TID 0000.0001)                 1.030000000000000E+03
(PID.TID 0000.0001)     ;
(PID.TID 0000.0001) rhoConst =   /* Reference density ( kg/m^3 ) */
(PID.TID 0000.0001)                 1.030000000000000E+03
(PID.TID 0000.0001)     ;
(PID.TID 0000.0001) rhoFacC = /* normalized Reference density @ cell-Center (-) */
(PID.TID 0000.0001)    30 @  1.000000000000000E+00              /* K =  1: 30 */
(PID.TID 0000.0001)     ;
(PID.TID 0000.0001) rhoFacF = /* normalized Reference density @ W-Interface (-) */
(PID.TID 0000.0001)    31 @  1.000000000000000E+00              /* K =  1: 31 */
(PID.TID 0000.0001)     ;
(PID.TID 0000.0001) rhoConstFresh =   /* Reference density ( kg/m^3 ) */
(PID.TID 0000.0001)                 1.030000000000000E+03
(PID.TID 0000.0001)     ;
(PID.TID 0000.0001) gravity =   /* Gravitational acceleration ( m/s^2 ) */
(PID.TID 0000.0001)                 9.810000000000000E+00
(PID.TID 0000.0001)     ;
(PID.TID 0000.0001) gBaro =   /* Barotropic gravity ( m/s^2 ) */
(PID.TID 0000.0001)                 9.810000000000000E+00
(PID.TID 0000.0001)     ;
(PID.TID 0000.0001) rotationPeriod =   /* Rotation Period ( s ) */
(PID.TID 0000.0001)                 8.616400000000000E+04
(PID.TID 0000.0001)     ;
(PID.TID 0000.0001) omega =   /* Angular velocity ( rad/s ) */
(PID.TID 0000.0001)                 7.292123516990375E-05
(PID.TID 0000.0001)     ;
(PID.TID 0000.0001) f0 =   /* Reference coriolis parameter ( 1/s ) */
(PID.TID 0000.0001)                 1.000000000000000E-04
(PID.TID 0000.0001)     ;
(PID.TID 0000.0001) beta =   /* Beta ( 1/(m.s) ) */
(PID.TID 0000.0001)                 9.999999999999999E-12
(PID.TID 0000.0001)     ;
(PID.TID 0000.0001) freeSurfFac =   /* Implicit free surface factor */
(PID.TID 0000.0001)                 1.000000000000000E+00
(PID.TID 0000.0001)     ;
(PID.TID 0000.0001) implicitFreeSurface =   /* Implicit free surface on/off flag */
(PID.TID 0000.0001)                   T
(PID.TID 0000.0001)     ;
(PID.TID 0000.0001) rigidLid =   /* Rigid lid on/off flag */
(PID.TID 0000.0001)                   F
(PID.TID 0000.0001)     ;
(PID.TID 0000.0001) implicSurfPress =   /* Surface Pressure implicit factor (0-1)*/
(PID.TID 0000.0001)                 1.000000000000000E+00
(PID.TID 0000.0001)     ;
(PID.TID 0000.0001) implicDiv2Dflow =   /* Barot. Flow Div. implicit factor (0-1)*/
(PID.TID 0000.0001)                 1.000000000000000E+00
(PID.TID 0000.0001)     ;
(PID.TID 0000.0001) exactConserv =   /* Exact Volume Conservation on/off flag*/
(PID.TID 0000.0001)                   T
(PID.TID 0000.0001)     ;
(PID.TID 0000.0001) uniformLin_PhiSurf =   /* use uniform Bo_surf on/off flag*/
(PID.TID 0000.0001)                   T
(PID.TID 0000.0001)     ;
(PID.TID 0000.0001) nonlinFreeSurf =   /* Non-linear Free Surf. options (-1,0,1,2,3)*/
(PID.TID 0000.0001)                       0
(PID.TID 0000.0001)     ;
(PID.TID 0000.0001)      -1,0= Off ; 1,2,3= On, 2=+rescale gU,gV, 3=+update cg2d solv.
(PID.TID 0000.0001) hFacInf =   /* lower threshold for hFac (nonlinFreeSurf only)*/
(PID.TID 0000.0001)                 2.000000000000000E-01
(PID.TID 0000.0001)     ;
(PID.TID 0000.0001) hFacSup =   /* upper threshold for hFac (nonlinFreeSurf only)*/
(PID.TID 0000.0001)                 2.000000000000000E+00
(PID.TID 0000.0001)     ;
(PID.TID 0000.0001) select_rStar =   /* r* Coordinate options (not yet implemented)*/
(PID.TID 0000.0001)                       0
(PID.TID 0000.0001)     ;
(PID.TID 0000.0001) useRealFreshWaterFlux =   /* Real Fresh Water Flux on/off flag*/
(PID.TID 0000.0001)                   F
(PID.TID 0000.0001)     ;
(PID.TID 0000.0001) convertFW2Salt = /* convert F.W. Flux to Salt Flux (-1=use local S)(ppt)*/
(PID.TID 0000.0001)                 3.340000000000000E+01
(PID.TID 0000.0001)     ;
(PID.TID 0000.0001) use3Dsolver = /* use 3-D pressure solver on/off flag */
(PID.TID 0000.0001)                   F
(PID.TID 0000.0001)     ;
(PID.TID 0000.0001) nonHydrostatic =  /* Non-Hydrostatic on/off flag */
(PID.TID 0000.0001)                   F
(PID.TID 0000.0001)     ;
(PID.TID 0000.0001) nh_Am2 = /* Non-Hydrostatic terms scaling factor */
(PID.TID 0000.0001)                 1.000000000000000E+00
(PID.TID 0000.0001)     ;
(PID.TID 0000.0001) quasiHydrostatic = /* Quasi-Hydrostatic on/off flag */
(PID.TID 0000.0001)                   F
(PID.TID 0000.0001)     ;
(PID.TID 0000.0001) momStepping =  /* Momentum equation on/off flag */
(PID.TID 0000.0001)                   T
(PID.TID 0000.0001)     ;
(PID.TID 0000.0001) vectorInvariantMomentum= /* Vector-Invariant Momentum on/off */
(PID.TID 0000.0001)                   F
(PID.TID 0000.0001)     ;
(PID.TID 0000.0001) momAdvection =  /* Momentum advection on/off flag */
(PID.TID 0000.0001)                   T
(PID.TID 0000.0001)     ;
(PID.TID 0000.0001) momViscosity =  /* Momentum viscosity on/off flag */
(PID.TID 0000.0001)                   T
(PID.TID 0000.0001)     ;
(PID.TID 0000.0001) momImplVertAdv =/* Momentum implicit vert. advection on/off*/
(PID.TID 0000.0001)                   F
(PID.TID 0000.0001)     ;
(PID.TID 0000.0001) implicitViscosity = /* Implicit viscosity on/off flag */
(PID.TID 0000.0001)                   F
(PID.TID 0000.0001)     ;
(PID.TID 0000.0001) metricTerms =  /* metric-Terms on/off flag */
(PID.TID 0000.0001)                   T
(PID.TID 0000.0001)     ;
(PID.TID 0000.0001) useNHMTerms = /* Non-Hydrostatic Metric-Terms on/off */
(PID.TID 0000.0001)                   F
(PID.TID 0000.0001)     ;
(PID.TID 0000.0001) useConstantF =  /* use Constant f0 Coriolis flag */
(PID.TID 0000.0001)                   F
(PID.TID 0000.0001)     ;
(PID.TID 0000.0001) useBetaPlaneF = /* use Beta-Plane Coriolis flag */
(PID.TID 0000.0001)                   F
(PID.TID 0000.0001)     ;
(PID.TID 0000.0001) useSphereF  =   /* use Spherical Coriolis flag */
(PID.TID 0000.0001)                   T
(PID.TID 0000.0001)     ;
(PID.TID 0000.0001) use3dCoriolis = /* 3-D Coriolis on/off flag */
(PID.TID 0000.0001)                   F
(PID.TID 0000.0001)     ;
(PID.TID 0000.0001) useCoriolis =  /* Coriolis on/off flag */
(PID.TID 0000.0001)                   T
(PID.TID 0000.0001)     ;
(PID.TID 0000.0001) useCDscheme =  /* CD scheme on/off flag */
(PID.TID 0000.0001)                   T
(PID.TID 0000.0001)     ;
(PID.TID 0000.0001) useJamartWetPoints= /* Coriolis WetPoints method flag */
(PID.TID 0000.0001)                   F
(PID.TID 0000.0001)     ;
(PID.TID 0000.0001) useJamartMomAdv= /* V.I. Non-linear terms Jamart flag */
(PID.TID 0000.0001)                   F
(PID.TID 0000.0001)     ;
(PID.TID 0000.0001) SadournyCoriolis= /* Sadourny Coriolis discr. flag */
(PID.TID 0000.0001)                   F
(PID.TID 0000.0001)     ;
(PID.TID 0000.0001) upwindVorticity= /* Upwind bias vorticity flag */
(PID.TID 0000.0001)                   F
(PID.TID 0000.0001)     ;
(PID.TID 0000.0001) useAbsVorticity= /* Work with f+zeta in Coriolis */
(PID.TID 0000.0001)                   F
(PID.TID 0000.0001)     ;
(PID.TID 0000.0001) highOrderVorticity= /* High order interp. of vort. flag */
(PID.TID 0000.0001)                   F
(PID.TID 0000.0001)     ;
(PID.TID 0000.0001) upwindShear= /* Upwind vertical Shear advection flag */
(PID.TID 0000.0001)                   F
(PID.TID 0000.0001)     ;
(PID.TID 0000.0001) selectKEscheme= /* Kinetic Energy scheme selector */
(PID.TID 0000.0001)                       0
(PID.TID 0000.0001)     ;
(PID.TID 0000.0001) momForcing =  /* Momentum forcing on/off flag */
(PID.TID 0000.0001)                   T
(PID.TID 0000.0001)     ;
(PID.TID 0000.0001) momPressureForcing =  /* Momentum pressure term on/off flag */
(PID.TID 0000.0001)                   T
(PID.TID 0000.0001)     ;
(PID.TID 0000.0001) implicitIntGravWave= /* Implicit Internal Gravity Wave flag */
(PID.TID 0000.0001)                   F
(PID.TID 0000.0001)     ;
(PID.TID 0000.0001) staggerTimeStep =   /* Stagger time stepping on/off flag */
(PID.TID 0000.0001)                   F
(PID.TID 0000.0001)     ;
(PID.TID 0000.0001) multiDimAdvection =   /* enable/disable Multi-Dim Advection */
(PID.TID 0000.0001)                   T
(PID.TID 0000.0001)     ;
(PID.TID 0000.0001) useMultiDimAdvec =   /* Multi-Dim Advection is/is-not used */
(PID.TID 0000.0001)                   F
(PID.TID 0000.0001)     ;
(PID.TID 0000.0001) implicitDiffusion =/* Implicit Diffusion on/off flag */
(PID.TID 0000.0001)                   F
(PID.TID 0000.0001)     ;
(PID.TID 0000.0001) tempStepping =  /* Temperature equation on/off flag */
(PID.TID 0000.0001)                   T
(PID.TID 0000.0001)     ;
(PID.TID 0000.0001) tempAdvection=  /* Temperature advection on/off flag */
(PID.TID 0000.0001)                   T
(PID.TID 0000.0001)     ;
(PID.TID 0000.0001) tempImplVertAdv =/* Temp. implicit vert. advection on/off */
(PID.TID 0000.0001)                   F
(PID.TID 0000.0001)     ;
(PID.TID 0000.0001) tempForcing  =  /* Temperature forcing on/off flag */
(PID.TID 0000.0001)                   T
(PID.TID 0000.0001)     ;
(PID.TID 0000.0001) saltStepping =  /* Salinity equation on/off flag */
(PID.TID 0000.0001)                   T
(PID.TID 0000.0001)     ;
(PID.TID 0000.0001) saltAdvection=  /* Salinity advection on/off flag */
(PID.TID 0000.0001)                   T
(PID.TID 0000.0001)     ;
(PID.TID 0000.0001) saltImplVertAdv =/* Sali. implicit vert. advection on/off */
(PID.TID 0000.0001)                   F
(PID.TID 0000.0001)     ;
(PID.TID 0000.0001) saltForcing  =  /* Salinity forcing on/off flag */
(PID.TID 0000.0001)                   T
(PID.TID 0000.0001)     ;
(PID.TID 0000.0001)  readBinaryPrec = /* Precision used for reading binary files */
(PID.TID 0000.0001)                      64
(PID.TID 0000.0001)     ;
(PID.TID 0000.0001) writeBinaryPrec = /* Precision used for writing binary files */
(PID.TID 0000.0001)                      32
(PID.TID 0000.0001)     ;
(PID.TID 0000.0001)  globalFiles = /* write "global" (=not per tile) files */
(PID.TID 0000.0001)                   F
(PID.TID 0000.0001)     ;
(PID.TID 0000.0001)  useSingleCpuIO = /* only master MPI process does I/O */
(PID.TID 0000.0001)                   F
(PID.TID 0000.0001)     ;
(PID.TID 0000.0001)  debugMode  =  /* Debug Mode on/off flag */
(PID.TID 0000.0001)                   F
(PID.TID 0000.0001)     ;
(PID.TID 0000.0001)    debLevA  =  /* 1rst level of debugging */
(PID.TID 0000.0001)                       1
(PID.TID 0000.0001)     ;
(PID.TID 0000.0001)    debLevB  =  /* 2nd  level of debugging */
(PID.TID 0000.0001)                       2
(PID.TID 0000.0001)     ;
(PID.TID 0000.0001)  debugLevel =  /* select debugging level */
(PID.TID 0000.0001)                       1
(PID.TID 0000.0001)     ;
(PID.TID 0000.0001) //
(PID.TID 0000.0001) // Elliptic solver(s) paramters ( PARM02 in namelist )
(PID.TID 0000.0001) //
(PID.TID 0000.0001) cg2dMaxIters =   /* Upper limit on 2d con. grad iterations  */
(PID.TID 0000.0001)                    1000
(PID.TID 0000.0001)     ;
(PID.TID 0000.0001) cg2dChkResFreq =   /* 2d con. grad convergence test frequency */
(PID.TID 0000.0001)                       1
(PID.TID 0000.0001)     ;
(PID.TID 0000.0001) cg2dTargetResidual =   /* 2d con. grad target residual  */
(PID.TID 0000.0001)                 1.000000000000000E-13
(PID.TID 0000.0001)     ;
(PID.TID 0000.0001) cg2dTargetResWunit =   /* CG2d target residual [W units] */
(PID.TID 0000.0001)                -1.000000000000000E+00
(PID.TID 0000.0001)     ;
(PID.TID 0000.0001) cg2dPreCondFreq =   /* Freq. for updating cg2d preconditioner */
(PID.TID 0000.0001)                       1
(PID.TID 0000.0001)     ;
(PID.TID 0000.0001) //
(PID.TID 0000.0001) // Time stepping paramters ( PARM03 in namelist )
(PID.TID 0000.0001) //
(PID.TID 0000.0001) nIter0 =   /* Run starting timestep number  */
(PID.TID 0000.0001)                       0
(PID.TID 0000.0001)     ;
(PID.TID 0000.0001) nTimeSteps =   /* Number of timesteps */
(PID.TID 0000.0001)                      20
(PID.TID 0000.0001)     ;
(PID.TID 0000.0001) deltaTmom =   /* Momentum equation timestep ( s ) */
(PID.TID 0000.0001)                 1.800000000000000E+03
(PID.TID 0000.0001)     ;
(PID.TID 0000.0001) deltaTfreesurf =   /* FreeSurface equation timestep ( s ) */
(PID.TID 0000.0001)                 1.800000000000000E+03
(PID.TID 0000.0001)     ;
(PID.TID 0000.0001) dTtracerLev =   /* Tracer equation timestep ( s ) */
(PID.TID 0000.0001)    30 @  1.800000000000000E+03              /* K =  1: 30 */
(PID.TID 0000.0001)     ;
(PID.TID 0000.0001) deltaTClock  =   /* Model clock timestep ( s ) */
(PID.TID 0000.0001)                 1.800000000000000E+03
(PID.TID 0000.0001)     ;
(PID.TID 0000.0001) cAdjFreq =   /* Convective adjustment interval ( s ) */
(PID.TID 0000.0001)                 1.800000000000000E+03
(PID.TID 0000.0001)     ;
(PID.TID 0000.0001) momForcingOutAB = /* =1: take Momentum Forcing out of Adams-Bash. stepping */
(PID.TID 0000.0001)                       0
(PID.TID 0000.0001)     ;
(PID.TID 0000.0001) tracForcingOutAB = /* =1: take T,S,pTr Forcing out of Adams-Bash. stepping */
(PID.TID 0000.0001)                       0
(PID.TID 0000.0001)     ;
(PID.TID 0000.0001) momDissip_In_AB = /* put Dissipation Tendency in Adams-Bash. stepping */
(PID.TID 0000.0001)                   T
(PID.TID 0000.0001)     ;
(PID.TID 0000.0001) doAB_onGtGs = /* apply AB on Tendencies (rather than on T,S)*/
(PID.TID 0000.0001)                   T
(PID.TID 0000.0001)     ;
(PID.TID 0000.0001) abEps =   /* Adams-Bashforth-2 stabilizing weight */
(PID.TID 0000.0001)                 1.000000000000000E-01
(PID.TID 0000.0001)     ;
(PID.TID 0000.0001) tauCD =   /* CD coupling time-scale ( s ) */
(PID.TID 0000.0001)                 4.000000000000000E+05
(PID.TID 0000.0001)     ;
(PID.TID 0000.0001) rCD =   /* Normalised CD coupling parameter */
(PID.TID 0000.0001)                 9.955000000000001E-01
(PID.TID 0000.0001)     ;
(PID.TID 0000.0001) baseTime =   /* Model base time ( s ). */
(PID.TID 0000.0001)                 0.000000000000000E+00
(PID.TID 0000.0001)     ;
(PID.TID 0000.0001) startTime =   /* Run start time ( s ). */
(PID.TID 0000.0001)                 0.000000000000000E+00
(PID.TID 0000.0001)     ;
(PID.TID 0000.0001) endTime =   /* Integration ending time ( s ). */
(PID.TID 0000.0001)                 3.600000000000000E+04
(PID.TID 0000.0001)     ;
(PID.TID 0000.0001) pChkPtFreq =   /* Permanent restart/checkpoint file interval ( s ). */
(PID.TID 0000.0001)                 0.000000000000000E+00
(PID.TID 0000.0001)     ;
(PID.TID 0000.0001) chkPtFreq =   /* Rolling restart/checkpoint file interval ( s ). */
(PID.TID 0000.0001)                 0.000000000000000E+00
(PID.TID 0000.0001)     ;
(PID.TID 0000.0001) pickup_write_mdsio =   /* Model IO flag. */
(PID.TID 0000.0001)                   F
(PID.TID 0000.0001)     ;
(PID.TID 0000.0001) pickup_read_mdsio =   /* Model IO flag. */
(PID.TID 0000.0001)                   F
(PID.TID 0000.0001)     ;
(PID.TID 0000.0001) pickup_write_mnc =   /* Model IO flag. */
(PID.TID 0000.0001)                   T
(PID.TID 0000.0001)     ;
(PID.TID 0000.0001) pickup_read_mnc =   /* Model IO flag. */
(PID.TID 0000.0001)                   T
(PID.TID 0000.0001)     ;
(PID.TID 0000.0001) pickup_write_immed =   /* Model IO flag. */
(PID.TID 0000.0001)                   F
(PID.TID 0000.0001)     ;
(PID.TID 0000.0001) dumpFreq =   /* Model state write out interval ( s ). */
(PID.TID 0000.0001)                 0.000000000000000E+00
(PID.TID 0000.0001)     ;
(PID.TID 0000.0001) dumpInitAndLast= /* write out Initial & Last iter. model state */
(PID.TID 0000.0001)                   T
(PID.TID 0000.0001)     ;
(PID.TID 0000.0001) snapshot_mdsio =   /* Model IO flag. */
(PID.TID 0000.0001)                   F
(PID.TID 0000.0001)     ;
(PID.TID 0000.0001) snapshot_mnc =   /* Model IO flag. */
(PID.TID 0000.0001)                   T
(PID.TID 0000.0001)     ;
(PID.TID 0000.0001) monitorFreq =   /* Monitor output interval ( s ). */
(PID.TID 0000.0001)                 1.000000000000000E+00
(PID.TID 0000.0001)     ;
(PID.TID 0000.0001) monitor_stdio =   /* Model IO flag. */
(PID.TID 0000.0001)                   T
(PID.TID 0000.0001)     ;
(PID.TID 0000.0001) monitor_mnc =   /* Model IO flag. */
(PID.TID 0000.0001)                   F
(PID.TID 0000.0001)     ;
(PID.TID 0000.0001) externForcingPeriod =   /* forcing period (s) */
(PID.TID 0000.0001)                 0.000000000000000E+00
(PID.TID 0000.0001)     ;
(PID.TID 0000.0001) externForcingCycle =   /* period of the cyle (s). */
(PID.TID 0000.0001)                 0.000000000000000E+00
(PID.TID 0000.0001)     ;
(PID.TID 0000.0001) tauThetaClimRelax =   /* relaxation time scale (s) */
(PID.TID 0000.0001)                 0.000000000000000E+00
(PID.TID 0000.0001)     ;
(PID.TID 0000.0001) tauSaltClimRelax =   /* relaxation time scale (s) */
(PID.TID 0000.0001)                 0.000000000000000E+00
(PID.TID 0000.0001)     ;
(PID.TID 0000.0001) latBandClimRelax =   /* max. Lat. where relaxation */
(PID.TID 0000.0001)                 1.800000000000000E+02
(PID.TID 0000.0001)     ;
(PID.TID 0000.0001) //
(PID.TID 0000.0001) // Gridding paramters ( PARM04 in namelist )
(PID.TID 0000.0001) //
(PID.TID 0000.0001) usingCartesianGrid = /* Cartesian coordinates flag ( True/False ) */
(PID.TID 0000.0001)                   F
(PID.TID 0000.0001)     ;
(PID.TID 0000.0001) usingCylindricalGrid = /* Cylindrical coordinates flag ( True/False ) */
(PID.TID 0000.0001)                   F
(PID.TID 0000.0001)     ;
(PID.TID 0000.0001) usingSphericalPolarGrid = /* Spherical coordinates flag ( True/False ) */
(PID.TID 0000.0001)                   T
(PID.TID 0000.0001)     ;
(PID.TID 0000.0001) usingCurvilinearGrid = /* Curvilinear coordinates flag ( True/False ) */
(PID.TID 0000.0001)                   F
(PID.TID 0000.0001)     ;
(PID.TID 0000.0001) Ro_SeaLevel = /* r(1) ( units of r ) */
(PID.TID 0000.0001)                 0.000000000000000E+00
(PID.TID 0000.0001)     ;
(PID.TID 0000.0001) rkSign =   /* index orientation relative to vertical coordinate */
(PID.TID 0000.0001)                -1.000000000000000E+00
(PID.TID 0000.0001)     ;
(PID.TID 0000.0001) gravitySign = /* gravity orientation relative to vertical coordinate */
(PID.TID 0000.0001)                -1.000000000000000E+00
(PID.TID 0000.0001)     ;
(PID.TID 0000.0001) horiVertRatio =   /* Ratio on units : Horiz - Vertical */
(PID.TID 0000.0001)                 1.000000000000000E+00
(PID.TID 0000.0001)     ;
(PID.TID 0000.0001) drC =   /* C spacing ( units of r ) */
(PID.TID 0000.0001)                 1.500000000000000E+01,      /* K =  1 */
(PID.TID 0000.0001)    29 @  3.000000000000000E+01              /* K =  2: 30 */
(PID.TID 0000.0001)     ;
(PID.TID 0000.0001) drF =   /* W spacing ( units of r ) */
(PID.TID 0000.0001)    30 @  3.000000000000000E+01              /* K =  1: 30 */
(PID.TID 0000.0001)     ;
(PID.TID 0000.0001) delX =   /* U spacing ( m - cartesian, degrees - spherical ) */
(PID.TID 0000.0001)    50 @  3.000000000000000E-01              /* I =  1: 50 */
(PID.TID 0000.0001)     ;
(PID.TID 0000.0001) delY =   /* V spacing ( m - cartesian, degrees - spherical ) */
(PID.TID 0000.0001)   100 @  1.000000000000000E-01              /* J =  1:100 */
(PID.TID 0000.0001)     ;
(PID.TID 0000.0001) phiMin =    /* South edge (ignored - cartesian, degrees - spherical ) */
(PID.TID 0000.0001)                -8.000000000000000E+01
(PID.TID 0000.0001)     ;
(PID.TID 0000.0001) thetaMin =    /* West edge ( ignored - cartesian, degrees - spherical ) */
(PID.TID 0000.0001)                 0.000000000000000E+00
(PID.TID 0000.0001)     ;
(PID.TID 0000.0001) rSphere =  /* Radius ( ignored - cartesian, m - spherical ) */
(PID.TID 0000.0001)                 6.370000000000000E+06
(PID.TID 0000.0001)     ;
(PID.TID 0000.0001) deepAtmosphere = /* Deep/Shallow Atmosphere flag (True/False) */
(PID.TID 0000.0001)                   F
(PID.TID 0000.0001)     ;
(PID.TID 0000.0001) xcoord =   /* P-point X coord ( m - cartesian, degrees - spherical ) */
(PID.TID 0000.0001)                 1.500000000000001E-01,      /* I =  1 */
(PID.TID 0000.0001)                 4.500000000000001E-01,      /* I =  2 */
(PID.TID 0000.0001)                 7.500000000000002E-01,      /* I =  3 */
(PID.TID 0000.0001)                 1.050000000000000E+00,      /* I =  4 */
(PID.TID 0000.0001)                 1.350000000000000E+00,      /* I =  5 */
(PID.TID 0000.0001)                 1.650000000000000E+00,      /* I =  6 */
(PID.TID 0000.0001)                 1.950000000000000E+00,      /* I =  7 */
(PID.TID 0000.0001)                 2.250000000000000E+00,      /* I =  8 */
(PID.TID 0000.0001)                 2.550000000000000E+00,      /* I =  9 */
(PID.TID 0000.0001)                 2.850000000000000E+00,      /* I = 10 */
(PID.TID 0000.0001)                 3.149999999999999E+00,      /* I = 11 */
(PID.TID 0000.0001)                 3.449999999999999E+00,      /* I = 12 */
(PID.TID 0000.0001)                 3.749999999999999E+00,      /* I = 13 */
(PID.TID 0000.0001)                 4.049999999999999E+00,      /* I = 14 */
(PID.TID 0000.0001)                 4.350000000000000E+00,      /* I = 15 */
(PID.TID 0000.0001)                 4.649999999999999E+00,      /* I = 16 */
(PID.TID 0000.0001)                 4.949999999999999E+00,      /* I = 17 */
(PID.TID 0000.0001)                 5.249999999999998E+00,      /* I = 18 */
(PID.TID 0000.0001)                 5.549999999999999E+00,      /* I = 19 */
(PID.TID 0000.0001)                 5.849999999999998E+00,      /* I = 20 */
(PID.TID 0000.0001)                 6.149999999999999E+00,      /* I = 21 */
(PID.TID 0000.0001)                 6.449999999999998E+00,      /* I = 22 */
(PID.TID 0000.0001)                 6.749999999999998E+00,      /* I = 23 */
(PID.TID 0000.0001)                 7.049999999999997E+00,      /* I = 24 */
(PID.TID 0000.0001)                 7.349999999999997E+00,      /* I = 25 */
(PID.TID 0000.0001)                 7.649999999999997E+00,      /* I = 26 */
(PID.TID 0000.0001)                 7.949999999999998E+00,      /* I = 27 */
(PID.TID 0000.0001)                 8.249999999999998E+00,      /* I = 28 */
(PID.TID 0000.0001)                 8.549999999999999E+00,      /* I = 29 */
(PID.TID 0000.0001)                 8.850000000000000E+00,      /* I = 30 */
(PID.TID 0000.0001)                 9.150000000000000E+00,      /* I = 31 */
(PID.TID 0000.0001)                 9.450000000000001E+00,      /* I = 32 */
(PID.TID 0000.0001)                 9.750000000000002E+00,      /* I = 33 */
(PID.TID 0000.0001)                 1.005000000000000E+01,      /* I = 34 */
(PID.TID 0000.0001)                 1.035000000000000E+01,      /* I = 35 */
(PID.TID 0000.0001)                 1.065000000000000E+01,      /* I = 36 */
(PID.TID 0000.0001)                 1.095000000000001E+01,      /* I = 37 */
(PID.TID 0000.0001)                 1.125000000000001E+01,      /* I = 38 */
(PID.TID 0000.0001)                 1.155000000000000E+01,      /* I = 39 */
(PID.TID 0000.0001)                 1.185000000000001E+01,      /* I = 40 */
(PID.TID 0000.0001)                 1.215000000000001E+01,      /* I = 41 */
(PID.TID 0000.0001)                 1.245000000000001E+01,      /* I = 42 */
(PID.TID 0000.0001)                 1.275000000000001E+01,      /* I = 43 */
(PID.TID 0000.0001)                 1.305000000000001E+01,      /* I = 44 */
(PID.TID 0000.0001)                 1.335000000000001E+01,      /* I = 45 */
(PID.TID 0000.0001)                 1.365000000000001E+01,      /* I = 46 */
(PID.TID 0000.0001)                 1.395000000000001E+01,      /* I = 47 */
(PID.TID 0000.0001)                 1.425000000000001E+01,      /* I = 48 */
(PID.TID 0000.0001)                 1.455000000000001E+01,      /* I = 49 */
(PID.TID 0000.0001)                 1.485000000000001E+01       /* I = 50 */
(PID.TID 0000.0001)     ;
(PID.TID 0000.0001) ycoord =   /* P-point Y coord ( m - cartesian, degrees - spherical ) */
(PID.TID 0000.0001)                -7.995000000000000E+01,      /* J =  1 */
(PID.TID 0000.0001)                -7.985000000000001E+01,      /* J =  2 */
(PID.TID 0000.0001)                -7.975000000000001E+01,      /* J =  3 */
(PID.TID 0000.0001)                -7.965000000000002E+01,      /* J =  4 */
(PID.TID 0000.0001)                -7.955000000000003E+01,      /* J =  5 */
(PID.TID 0000.0001)                -7.945000000000003E+01,      /* J =  6 */
(PID.TID 0000.0001)                -7.935000000000004E+01,      /* J =  7 */
(PID.TID 0000.0001)                -7.925000000000004E+01,      /* J =  8 */
(PID.TID 0000.0001)                -7.915000000000005E+01,      /* J =  9 */
(PID.TID 0000.0001)                -7.905000000000005E+01,      /* J = 10 */
(PID.TID 0000.0001)                -7.895000000000006E+01,      /* J = 11 */
(PID.TID 0000.0001)                -7.885000000000007E+01,      /* J = 12 */
(PID.TID 0000.0001)                -7.875000000000007E+01,      /* J = 13 */
(PID.TID 0000.0001)                -7.865000000000008E+01,      /* J = 14 */
(PID.TID 0000.0001)                -7.855000000000008E+01,      /* J = 15 */
(PID.TID 0000.0001)                -7.845000000000009E+01,      /* J = 16 */
(PID.TID 0000.0001)                -7.835000000000009E+01,      /* J = 17 */
(PID.TID 0000.0001)                -7.825000000000010E+01,      /* J = 18 */
(PID.TID 0000.0001)                -7.815000000000011E+01,      /* J = 19 */
(PID.TID 0000.0001)                -7.805000000000011E+01,      /* J = 20 */
(PID.TID 0000.0001)                -7.795000000000012E+01,      /* J = 21 */
(PID.TID 0000.0001)                -7.785000000000012E+01,      /* J = 22 */
(PID.TID 0000.0001)                -7.775000000000013E+01,      /* J = 23 */
(PID.TID 0000.0001)                -7.765000000000013E+01,      /* J = 24 */
(PID.TID 0000.0001)                -7.755000000000014E+01,      /* J = 25 */
(PID.TID 0000.0001)                -7.745000000000014E+01,      /* J = 26 */
(PID.TID 0000.0001)                -7.735000000000015E+01,      /* J = 27 */
(PID.TID 0000.0001)                -7.725000000000016E+01,      /* J = 28 */
(PID.TID 0000.0001)                -7.715000000000016E+01,      /* J = 29 */
(PID.TID 0000.0001)                -7.705000000000017E+01,      /* J = 30 */
(PID.TID 0000.0001)                -7.695000000000017E+01,      /* J = 31 */
(PID.TID 0000.0001)                -7.685000000000018E+01,      /* J = 32 */
(PID.TID 0000.0001)                -7.675000000000018E+01,      /* J = 33 */
(PID.TID 0000.0001)                -7.665000000000019E+01,      /* J = 34 */
(PID.TID 0000.0001)                -7.655000000000020E+01,      /* J = 35 */
(PID.TID 0000.0001)                -7.645000000000020E+01,      /* J = 36 */
(PID.TID 0000.0001)                -7.635000000000021E+01,      /* J = 37 */
(PID.TID 0000.0001)                -7.625000000000021E+01,      /* J = 38 */
(PID.TID 0000.0001)                -7.615000000000022E+01,      /* J = 39 */
(PID.TID 0000.0001)                -7.605000000000022E+01,      /* J = 40 */
(PID.TID 0000.0001)                -7.595000000000023E+01,      /* J = 41 */
(PID.TID 0000.0001)                -7.585000000000024E+01,      /* J = 42 */
(PID.TID 0000.0001)                -7.575000000000024E+01,      /* J = 43 */
(PID.TID 0000.0001)                -7.565000000000025E+01,      /* J = 44 */
(PID.TID 0000.0001)                -7.555000000000025E+01,      /* J = 45 */
(PID.TID 0000.0001)                -7.545000000000026E+01,      /* J = 46 */
(PID.TID 0000.0001)                -7.535000000000026E+01,      /* J = 47 */
(PID.TID 0000.0001)                -7.525000000000027E+01,      /* J = 48 */
(PID.TID 0000.0001)                -7.515000000000028E+01,      /* J = 49 */
(PID.TID 0000.0001)                -7.505000000000028E+01,      /* J = 50 */
(PID.TID 0000.0001)                -7.495000000000029E+01,      /* J = 51 */
(PID.TID 0000.0001)                -7.485000000000029E+01,      /* J = 52 */
(PID.TID 0000.0001)                -7.475000000000030E+01,      /* J = 53 */
(PID.TID 0000.0001)                -7.465000000000030E+01,      /* J = 54 */
(PID.TID 0000.0001)                -7.455000000000031E+01,      /* J = 55 */
(PID.TID 0000.0001)                -7.445000000000032E+01,      /* J = 56 */
(PID.TID 0000.0001)                -7.435000000000032E+01,      /* J = 57 */
(PID.TID 0000.0001)                -7.425000000000033E+01,      /* J = 58 */
(PID.TID 0000.0001)                -7.415000000000033E+01,      /* J = 59 */
(PID.TID 0000.0001)                -7.405000000000034E+01,      /* J = 60 */
(PID.TID 0000.0001)                -7.395000000000034E+01,      /* J = 61 */
(PID.TID 0000.0001)                -7.385000000000035E+01,      /* J = 62 */
(PID.TID 0000.0001)                -7.375000000000036E+01,      /* J = 63 */
(PID.TID 0000.0001)                -7.365000000000036E+01,      /* J = 64 */
(PID.TID 0000.0001)                -7.355000000000037E+01,      /* J = 65 */
(PID.TID 0000.0001)                -7.345000000000037E+01,      /* J = 66 */
(PID.TID 0000.0001)                -7.335000000000038E+01,      /* J = 67 */
(PID.TID 0000.0001)                -7.325000000000038E+01,      /* J = 68 */
(PID.TID 0000.0001)                -7.315000000000039E+01,      /* J = 69 */
(PID.TID 0000.0001)                -7.305000000000040E+01,      /* J = 70 */
(PID.TID 0000.0001)                -7.295000000000040E+01,      /* J = 71 */
(PID.TID 0000.0001)                -7.285000000000041E+01,      /* J = 72 */
(PID.TID 0000.0001)                -7.275000000000041E+01,      /* J = 73 */
(PID.TID 0000.0001)                -7.265000000000042E+01,      /* J = 74 */
(PID.TID 0000.0001)                -7.255000000000042E+01,      /* J = 75 */
(PID.TID 0000.0001)                -7.245000000000043E+01,      /* J = 76 */
(PID.TID 0000.0001)                -7.235000000000043E+01,      /* J = 77 */
(PID.TID 0000.0001)                -7.225000000000044E+01,      /* J = 78 */
(PID.TID 0000.0001)                -7.215000000000045E+01,      /* J = 79 */
(PID.TID 0000.0001)                -7.205000000000045E+01,      /* J = 80 */
(PID.TID 0000.0001)                -7.195000000000046E+01,      /* J = 81 */
(PID.TID 0000.0001)                -7.185000000000046E+01,      /* J = 82 */
(PID.TID 0000.0001)                -7.175000000000047E+01,      /* J = 83 */
(PID.TID 0000.0001)                -7.165000000000047E+01,      /* J = 84 */
(PID.TID 0000.0001)                -7.155000000000048E+01,      /* J = 85 */
(PID.TID 0000.0001)                -7.145000000000049E+01,      /* J = 86 */
(PID.TID 0000.0001)                -7.135000000000049E+01,      /* J = 87 */
(PID.TID 0000.0001)                -7.125000000000050E+01,      /* J = 88 */
(PID.TID 0000.0001)                -7.115000000000050E+01,      /* J = 89 */
(PID.TID 0000.0001)                -7.105000000000051E+01,      /* J = 90 */
(PID.TID 0000.0001)                -7.095000000000051E+01,      /* J = 91 */
(PID.TID 0000.0001)                -7.085000000000052E+01,      /* J = 92 */
(PID.TID 0000.0001)                -7.075000000000053E+01,      /* J = 93 */
(PID.TID 0000.0001)                -7.065000000000053E+01,      /* J = 94 */
(PID.TID 0000.0001)                -7.055000000000054E+01,      /* J = 95 */
(PID.TID 0000.0001)                -7.045000000000054E+01,      /* J = 96 */
(PID.TID 0000.0001)                -7.035000000000055E+01,      /* J = 97 */
(PID.TID 0000.0001)                -7.025000000000055E+01,      /* J = 98 */
(PID.TID 0000.0001)                -7.015000000000056E+01,      /* J = 99 */
(PID.TID 0000.0001)                -7.005000000000057E+01       /* J =100 */
(PID.TID 0000.0001)     ;
(PID.TID 0000.0001) rcoord =   /* P-point R coordinate (  units of r ) */
(PID.TID 0000.0001)                -1.500000000000000E+01,      /* K =  1 */
(PID.TID 0000.0001)                -4.500000000000000E+01,      /* K =  2 */
(PID.TID 0000.0001)                -7.500000000000000E+01,      /* K =  3 */
(PID.TID 0000.0001)                -1.050000000000000E+02,      /* K =  4 */
(PID.TID 0000.0001)                -1.350000000000000E+02,      /* K =  5 */
(PID.TID 0000.0001)                -1.650000000000000E+02,      /* K =  6 */
(PID.TID 0000.0001)                -1.950000000000000E+02,      /* K =  7 */
(PID.TID 0000.0001)                -2.250000000000000E+02,      /* K =  8 */
(PID.TID 0000.0001)                -2.550000000000000E+02,      /* K =  9 */
(PID.TID 0000.0001)                -2.850000000000000E+02,      /* K = 10 */
(PID.TID 0000.0001)                -3.150000000000000E+02,      /* K = 11 */
(PID.TID 0000.0001)                -3.450000000000000E+02,      /* K = 12 */
(PID.TID 0000.0001)                -3.750000000000000E+02,      /* K = 13 */
(PID.TID 0000.0001)                -4.050000000000000E+02,      /* K = 14 */
(PID.TID 0000.0001)                -4.350000000000000E+02,      /* K = 15 */
(PID.TID 0000.0001)                -4.650000000000000E+02,      /* K = 16 */
(PID.TID 0000.0001)                -4.950000000000000E+02,      /* K = 17 */
(PID.TID 0000.0001)                -5.250000000000000E+02,      /* K = 18 */
(PID.TID 0000.0001)                -5.550000000000000E+02,      /* K = 19 */
(PID.TID 0000.0001)                -5.850000000000000E+02,      /* K = 20 */
(PID.TID 0000.0001)                -6.150000000000000E+02,      /* K = 21 */
(PID.TID 0000.0001)                -6.450000000000000E+02,      /* K = 22 */
(PID.TID 0000.0001)                -6.750000000000000E+02,      /* K = 23 */
(PID.TID 0000.0001)                -7.050000000000000E+02,      /* K = 24 */
(PID.TID 0000.0001)                -7.350000000000000E+02,      /* K = 25 */
(PID.TID 0000.0001)                -7.650000000000000E+02,      /* K = 26 */
(PID.TID 0000.0001)                -7.950000000000000E+02,      /* K = 27 */
(PID.TID 0000.0001)                -8.250000000000000E+02,      /* K = 28 */
(PID.TID 0000.0001)                -8.550000000000000E+02,      /* K = 29 */
(PID.TID 0000.0001)                -8.850000000000000E+02       /* K = 30 */
(PID.TID 0000.0001)     ;
(PID.TID 0000.0001) rF =   /* W-Interf. R coordinate (  units of r ) */
(PID.TID 0000.0001)                 0.000000000000000E+00,      /* K =  1 */
(PID.TID 0000.0001)                -3.000000000000000E+01,      /* K =  2 */
(PID.TID 0000.0001)                -6.000000000000000E+01,      /* K =  3 */
(PID.TID 0000.0001)                -9.000000000000000E+01,      /* K =  4 */
(PID.TID 0000.0001)                -1.200000000000000E+02,      /* K =  5 */
(PID.TID 0000.0001)                -1.500000000000000E+02,      /* K =  6 */
(PID.TID 0000.0001)                -1.800000000000000E+02,      /* K =  7 */
(PID.TID 0000.0001)                -2.100000000000000E+02,      /* K =  8 */
(PID.TID 0000.0001)                -2.400000000000000E+02,      /* K =  9 */
(PID.TID 0000.0001)                -2.700000000000000E+02,      /* K = 10 */
(PID.TID 0000.0001)                -3.000000000000000E+02,      /* K = 11 */
(PID.TID 0000.0001)                -3.300000000000000E+02,      /* K = 12 */
(PID.TID 0000.0001)                -3.600000000000000E+02,      /* K = 13 */
(PID.TID 0000.0001)                -3.900000000000000E+02,      /* K = 14 */
(PID.TID 0000.0001)                -4.200000000000000E+02,      /* K = 15 */
(PID.TID 0000.0001)                -4.500000000000000E+02,      /* K = 16 */
(PID.TID 0000.0001)                -4.800000000000000E+02,      /* K = 17 */
(PID.TID 0000.0001)                -5.100000000000000E+02,      /* K = 18 */
(PID.TID 0000.0001)                -5.400000000000000E+02,      /* K = 19 */
(PID.TID 0000.0001)                -5.700000000000000E+02,      /* K = 20 */
(PID.TID 0000.0001)                -6.000000000000000E+02,      /* K = 21 */
(PID.TID 0000.0001)                -6.300000000000000E+02,      /* K = 22 */
(PID.TID 0000.0001)                -6.600000000000000E+02,      /* K = 23 */
(PID.TID 0000.0001)                -6.900000000000000E+02,      /* K = 24 */
(PID.TID 0000.0001)                -7.200000000000000E+02,      /* K = 25 */
(PID.TID 0000.0001)                -7.500000000000000E+02,      /* K = 26 */
(PID.TID 0000.0001)                -7.800000000000000E+02,      /* K = 27 */
(PID.TID 0000.0001)                -8.100000000000000E+02,      /* K = 28 */
(PID.TID 0000.0001)                -8.400000000000000E+02,      /* K = 29 */
(PID.TID 0000.0001)                -8.700000000000000E+02,      /* K = 30 */
(PID.TID 0000.0001)                -9.000000000000000E+02       /* K = 31 */
(PID.TID 0000.0001)     ;
(PID.TID 0000.0001) deepFacC = /* deep-model grid factor @ cell-Center (-) */
(PID.TID 0000.0001)    30 @  1.000000000000000E+00              /* K =  1: 30 */
(PID.TID 0000.0001)     ;
(PID.TID 0000.0001) deepFacF = /* deep-model grid factor @ W-Interface (-) */
(PID.TID 0000.0001)    31 @  1.000000000000000E+00              /* K =  1: 31 */
(PID.TID 0000.0001)     ;
(PID.TID 0000.0001) dBdrRef = /* Vertical gradient of reference boyancy [(m/s/r)^2)] */
(PID.TID 0000.0001)    30 @  0.000000000000000E+00              /* K =  1: 30 */
(PID.TID 0000.0001)     ;
(PID.TID 0000.0001) dxF =  /* dxF(:,1,:,1) ( units: m ) */
(PID.TID 0000.0001)    50 @  5.820391490558872E+03              /* I =  1: 50 */
(PID.TID 0000.0001)     ;
(PID.TID 0000.0001) dxF =  /* dxF(1,:,1,:) ( units: m ) */
(PID.TID 0000.0001)                 5.820391490558872E+03,      /* J =  1 */
(PID.TID 0000.0001)                 5.877701765291692E+03,      /* J =  2 */
(PID.TID 0000.0001)                 5.934994135525598E+03,      /* J =  3 */
(PID.TID 0000.0001)                 5.992268426738092E+03,      /* J =  4 */
(PID.TID 0000.0001)                 6.049524464461751E+03,      /* J =  5 */
(PID.TID 0000.0001)                 6.106762074284755E+03,      /* J =  6 */
(PID.TID 0000.0001)                 6.163981081851418E+03,      /* J =  7 */
(PID.TID 0000.0001)                 6.221181312862721E+03,      /* J =  8 */
(PID.TID 0000.0001)                 6.278362593076839E+03,      /* J =  9 */
[...]
(PID.TID 0000.0001) %MON dynstat_theta_mean           =  -1.9002064734320E+00
(PID.TID 0000.0001) %MON dynstat_theta_sd             =   9.5596400680090E-04
(PID.TID 0000.0001) %MON dynstat_theta_del2           =   1.2792529385266E-05
(PID.TID 0000.0001) %MON dynstat_salt_max             =   3.4400000000000E+01
(PID.TID 0000.0001) %MON dynstat_salt_min             =   3.4395560781418E+01
(PID.TID 0000.0001) %MON dynstat_salt_mean            =   3.4399915955166E+01
(PID.TID 0000.0001) %MON dynstat_salt_sd              =   3.7843086134427E-04
(PID.TID 0000.0001) %MON dynstat_salt_del2            =   4.9761813320343E-06
(PID.TID 0000.0001) %MON extforcing_qnet_max          =   0.0000000000000E+00
(PID.TID 0000.0001) %MON extforcing_qnet_min          =   0.0000000000000E+00
(PID.TID 0000.0001) %MON extforcing_qnet_mean         =   0.0000000000000E+00
(PID.TID 0000.0001) %MON extforcing_qnet_sd           =   0.0000000000000E+00
(PID.TID 0000.0001) %MON extforcing_qnet_del2         =   0.0000000000000E+00
(PID.TID 0000.0001) %MON extforcing_qsw_max           =   0.0000000000000E+00
(PID.TID 0000.0001) %MON extforcing_qsw_min           =   0.0000000000000E+00
(PID.TID 0000.0001) %MON extforcing_qsw_mean          =   0.0000000000000E+00
(PID.TID 0000.0001) %MON extforcing_qsw_sd            =   0.0000000000000E+00
(PID.TID 0000.0001) %MON extforcing_qsw_del2          =   0.0000000000000E+00
(PID.TID 0000.0001) %MON extforcing_empmr_max         =   0.0000000000000E+00
(PID.TID 0000.0001) %MON extforcing_empmr_min         =   0.0000000000000E+00
(PID.TID 0000.0001) %MON extforcing_empmr_mean        =   0.0000000000000E+00
(PID.TID 0000.0001) %MON extforcing_empmr_sd          =   0.0000000000000E+00
(PID.TID 0000.0001) %MON extforcing_empmr_del2        =   0.0000000000000E+00
(PID.TID 0000.0001) %MON extforcing_fu_max            =   0.0000000000000E+00
(PID.TID 0000.0001) %MON extforcing_fu_min            =   0.0000000000000E+00
(PID.TID 0000.0001) %MON extforcing_fu_mean           =   0.0000000000000E+00
(PID.TID 0000.0001) %MON extforcing_fu_sd             =   0.0000000000000E+00
(PID.TID 0000.0001) %MON extforcing_fu_del2           =   0.0000000000000E+00
(PID.TID 0000.0001) %MON extforcing_fv_max            =   0.0000000000000E+00
(PID.TID 0000.0001) %MON extforcing_fv_min            =   0.0000000000000E+00
(PID.TID 0000.0001) %MON extforcing_fv_mean           =   0.0000000000000E+00
(PID.TID 0000.0001) %MON extforcing_fv_sd             =   0.0000000000000E+00
(PID.TID 0000.0001) %MON extforcing_fv_del2           =   0.0000000000000E+00
(PID.TID 0000.0001) %MON advcfl_uvel_max              =   6.9180522107064E-05
(PID.TID 0000.0001) %MON advcfl_vvel_max              =   8.0377375601162E-06
(PID.TID 0000.0001) %MON advcfl_wvel_max              =   6.4079223038509E-05
(PID.TID 0000.0001) %MON advcfl_W_hf_max              =   6.8949779659608E-05
(PID.TID 0000.0001) %MON pe_b_mean                    =  -9.1411083809828E-09
(PID.TID 0000.0001) %MON ke_max                       =   2.7405433679160E-08
(PID.TID 0000.0001) %MON ke_mean                      =   1.4906239208885E-10
(PID.TID 0000.0001) %MON ke_vol                       =   2.9241705273104E+14
(PID.TID 0000.0001) %MON vort_r_min                   =  -7.8777620212896E-09
(PID.TID 0000.0001) %MON vort_r_max                   =   1.1222287735436E-08
(PID.TID 0000.0001) %MON vort_a_mean                  =  -1.4007437278507E-04
(PID.TID 0000.0001) %MON vort_a_sd                    =   1.7682753800876E-06
(PID.TID 0000.0001) %MON vort_p_mean                  =  -1.5039772195590E-04
(PID.TID 0000.0001) %MON vort_p_sd                    =   8.7078625772113E-05
(PID.TID 0000.0001) %MON surfExpan_theta_mean         =  -4.1115572440104E-13
(PID.TID 0000.0001) %MON surfExpan_salt_mean          =  -1.5197465751752E-13
(PID.TID 0000.0001) // =======================================================
(PID.TID 0000.0001) // End MONITOR dynamic field statistics
(PID.TID 0000.0001) // =======================================================
 cg2d: Sum(rhs),rhsMax =   4.44089209850063E-16  1.87183000368953E-04
(PID.TID 0000.0001)                    cg2d_init_res =    1.72590857414483E+00
(PID.TID 0000.0001)                       cg2d_iters =   201
(PID.TID 0000.0001)                         cg2d_res =    7.56264028882416E-14
(PID.TID 0000.0001) // =======================================================
(PID.TID 0000.0001) // Begin MONITOR dynamic field statistics
(PID.TID 0000.0001) // =======================================================
(PID.TID 0000.0001) %MON time_tsnumber                =                    20
(PID.TID 0000.0001) %MON time_secondsf                =   3.6000000000000E+04
(PID.TID 0000.0001) %MON dynstat_eta_max              =   5.3996497844156E-05
(PID.TID 0000.0001) %MON dynstat_eta_min              =  -2.6955398593138E-05
(PID.TID 0000.0001) %MON dynstat_eta_mean             =   7.9855749634540E-21
(PID.TID 0000.0001) %MON dynstat_eta_sd               =   1.2934953714121E-05
(PID.TID 0000.0001) %MON dynstat_eta_del2             =   4.9552093578949E-06
(PID.TID 0000.0001) %MON dynstat_uvel_max             =   3.7020762377488E-05
(PID.TID 0000.0001) %MON dynstat_uvel_min             =  -2.3951110945695E-04
(PID.TID 0000.0001) %MON dynstat_uvel_mean            =   2.3303534394291E-08
(PID.TID 0000.0001) %MON dynstat_uvel_sd              =   1.7808172040706E-05
(PID.TID 0000.0001) %MON dynstat_uvel_del2            =   7.5370009995679E-07
(PID.TID 0000.0001) %MON dynstat_vvel_max             =   4.2180092558769E-05
(PID.TID 0000.0001) %MON dynstat_vvel_min             =  -1.0112737036773E-05
(PID.TID 0000.0001) %MON dynstat_vvel_mean            =  -9.8692389007052E-08
(PID.TID 0000.0001) %MON dynstat_vvel_sd              =   1.8816816175033E-06
(PID.TID 0000.0001) %MON dynstat_vvel_del2            =   1.3389518406006E-07
(PID.TID 0000.0001) %MON dynstat_wvel_max             =   1.0999324876943E-06
(PID.TID 0000.0001) %MON dynstat_wvel_min             =  -1.0678735317628E-06
(PID.TID 0000.0001) %MON dynstat_wvel_mean            =  -4.8061946204377E-11
(PID.TID 0000.0001) %MON dynstat_wvel_sd              =   3.7660691688458E-08
(PID.TID 0000.0001) %MON dynstat_wvel_del2            =   3.8694642921496E-09
(PID.TID 0000.0001) %MON dynstat_theta_max            =  -1.9000000000000E+00
(PID.TID 0000.0001) %MON dynstat_theta_min            =  -1.9127157749552E+00
(PID.TID 0000.0001) %MON dynstat_theta_mean           =  -1.9002172273992E+00
(PID.TID 0000.0001) %MON dynstat_theta_sd             =   1.0055668614990E-03
(PID.TID 0000.0001) %MON dynstat_theta_del2           =   1.3448085376461E-05
(PID.TID 0000.0001) %MON dynstat_salt_max             =   3.4400000000000E+01
(PID.TID 0000.0001) %MON dynstat_salt_min             =   3.4395329700411E+01
(PID.TID 0000.0001) %MON dynstat_salt_mean            =   3.4399911573455E+01
(PID.TID 0000.0001) %MON dynstat_salt_sd              =   3.9809794263073E-04
(PID.TID 0000.0001) %MON dynstat_salt_del2            =   5.2316705208850E-06
(PID.TID 0000.0001) %MON extforcing_qnet_max          =   0.0000000000000E+00
(PID.TID 0000.0001) %MON extforcing_qnet_min          =   0.0000000000000E+00
(PID.TID 0000.0001) %MON extforcing_qnet_mean         =   0.0000000000000E+00
(PID.TID 0000.0001) %MON extforcing_qnet_sd           =   0.0000000000000E+00
(PID.TID 0000.0001) %MON extforcing_qnet_del2         =   0.0000000000000E+00
(PID.TID 0000.0001) %MON extforcing_qsw_max           =   0.0000000000000E+00
(PID.TID 0000.0001) %MON extforcing_qsw_min           =   0.0000000000000E+00
(PID.TID 0000.0001) %MON extforcing_qsw_mean          =   0.0000000000000E+00
(PID.TID 0000.0001) %MON extforcing_qsw_sd            =   0.0000000000000E+00
(PID.TID 0000.0001) %MON extforcing_qsw_del2          =   0.0000000000000E+00
(PID.TID 0000.0001) %MON extforcing_empmr_max         =   0.0000000000000E+00
(PID.TID 0000.0001) %MON extforcing_empmr_min         =   0.0000000000000E+00
(PID.TID 0000.0001) %MON extforcing_empmr_mean        =   0.0000000000000E+00
(PID.TID 0000.0001) %MON extforcing_empmr_sd          =   0.0000000000000E+00
(PID.TID 0000.0001) %MON extforcing_empmr_del2        =   0.0000000000000E+00
(PID.TID 0000.0001) %MON extforcing_fu_max            =   0.0000000000000E+00
(PID.TID 0000.0001) %MON extforcing_fu_min            =   0.0000000000000E+00
(PID.TID 0000.0001) %MON extforcing_fu_mean           =   0.0000000000000E+00
(PID.TID 0000.0001) %MON extforcing_fu_sd             =   0.0000000000000E+00
(PID.TID 0000.0001) %MON extforcing_fu_del2           =   0.0000000000000E+00
(PID.TID 0000.0001) %MON extforcing_fv_max            =   0.0000000000000E+00
(PID.TID 0000.0001) %MON extforcing_fv_min            =   0.0000000000000E+00
(PID.TID 0000.0001) %MON extforcing_fv_mean           =   0.0000000000000E+00
(PID.TID 0000.0001) %MON extforcing_fv_sd             =   0.0000000000000E+00
(PID.TID 0000.0001) %MON extforcing_fv_del2           =   0.0000000000000E+00
(PID.TID 0000.0001) %MON advcfl_uvel_max              =   7.1265105142586E-05
(PID.TID 0000.0001) %MON advcfl_vvel_max              =   6.8290962473462E-06
(PID.TID 0000.0001) %MON advcfl_wvel_max              =   6.5995949261657E-05
(PID.TID 0000.0001) %MON advcfl_W_hf_max              =   7.0506147498238E-05
(PID.TID 0000.0001) %MON pe_b_mean                    =  -9.6793267006457E-09
(PID.TID 0000.0001) %MON ke_max                       =   2.8893385471941E-08
(PID.TID 0000.0001) %MON ke_mean                      =   1.5708411153699E-10
(PID.TID 0000.0001) %MON ke_vol                       =   2.9241705273104E+14
(PID.TID 0000.0001) %MON vort_r_min                   =  -7.1265982958650E-09
(PID.TID 0000.0001) %MON vort_r_max                   =   1.1683741800247E-08
(PID.TID 0000.0001) %MON vort_a_mean                  =  -1.4007437278324E-04
(PID.TID 0000.0001) %MON vort_a_sd                    =   1.7682753439135E-06
(PID.TID 0000.0001) %MON vort_p_mean                  =  -1.5039772195394E-04
(PID.TID 0000.0001) %MON vort_p_sd                    =   8.7078547808353E-05
(PID.TID 0000.0001) %MON surfExpan_theta_mean         =  -6.0596011375496E-13
(PID.TID 0000.0001) %MON surfExpan_salt_mean          =  -2.2319501041670E-13
(PID.TID 0000.0001) // =======================================================
(PID.TID 0000.0001) // End MONITOR dynamic field statistics
(PID.TID 0000.0001) // =======================================================
(PID.TID 0000.0001) %CHECKPOINT        20 ckptA
(PID.TID 0000.0001)   Seconds in section "ALL                    [THE_MODEL_MAIN]":
(PID.TID 0000.0001)           User time:  46.995856
(PID.TID 0000.0001)         System time:  0.581912002
(PID.TID 0000.0001)     Wall clock time:  48.8038759
(PID.TID 0000.0001)          No. starts: 1
(PID.TID 0000.0001)           No. stops: 1
(PID.TID 0000.0001)   Seconds in section "INITIALISE_FIXED       [THE_MODEL_MAIN]":
(PID.TID 0000.0001)           User time:  1.87171494
(PID.TID 0000.0001)         System time:  0.161976
(PID.TID 0000.0001)     Wall clock time:  2.13336992
(PID.TID 0000.0001)          No. starts: 1
(PID.TID 0000.0001)           No. stops: 1
(PID.TID 0000.0001)   Seconds in section "THE_MAIN_LOOP          [THE_MODEL_MAIN]":
(PID.TID 0000.0001)           User time:  44.2972673
(PID.TID 0000.0001)         System time:  0.133978993
(PID.TID 0000.0001)     Wall clock time:  45.557395
(PID.TID 0000.0001)          No. starts: 1
(PID.TID 0000.0001)           No. stops: 1
(PID.TID 0000.0001)   Seconds in section "INITIALISE_VARIA    [THE_MAIN_LOOP]":
(PID.TID 0000.0001)           User time:  0.419937015
(PID.TID 0000.0001)         System time:  0.057990998
(PID.TID 0000.0001)     Wall clock time:  0.478003025
(PID.TID 0000.0001)          No. starts: 1
(PID.TID 0000.0001)           No. stops: 1
(PID.TID 0000.0001)   Seconds in section "MAIN LOOP           [THE_MAIN_LOOP]":
(PID.TID 0000.0001)           User time:  43.3294144
(PID.TID 0000.0001)         System time:  0.0339950025
(PID.TID 0000.0001)     Wall clock time:  43.3861301
(PID.TID 0000.0001)          No. starts: 1
(PID.TID 0000.0001)           No. stops: 1
(PID.TID 0000.0001)   Seconds in section "FORWARD_STEP        [THE_MAIN_LOOP]":
(PID.TID 0000.0001)           User time:  43.3284149
(PID.TID 0000.0001)         System time:  0.0329950154
(PID.TID 0000.0001)     Wall clock time:  43.3854041
(PID.TID 0000.0001)          No. starts: 20
(PID.TID 0000.0001)           No. stops: 20
(PID.TID 0000.0001)   Seconds in section "LOAD_FIELDS_DRIVER  [FORWARD_STEP]":
(PID.TID 0000.0001)           User time:  0.000999450684
(PID.TID 0000.0001)         System time:  0.
(PID.TID 0000.0001)     Wall clock time:  0.0020172596
(PID.TID 0000.0001)          No. starts: 20
(PID.TID 0000.0001)           No. stops: 20
(PID.TID 0000.0001)   Seconds in section "EXTERNAL_FLDS_LOAD [LOAD_FLDS_DRIVER]":
(PID.TID 0000.0001)           User time:  0.000999450684
(PID.TID 0000.0001)         System time:  0.
(PID.TID 0000.0001)     Wall clock time:  0.000692605972
(PID.TID 0000.0001)          No. starts: 20
(PID.TID 0000.0001)           No. stops: 20
(PID.TID 0000.0001)   Seconds in section "DO_ATMOSPHERIC_PHYS [FORWARD_STEP]":
(PID.TID 0000.0001)           User time:  0.
(PID.TID 0000.0001)         System time:  0.
(PID.TID 0000.0001)     Wall clock time:  0.000673294067
(PID.TID 0000.0001)          No. starts: 20
(PID.TID 0000.0001)           No. stops: 20
(PID.TID 0000.0001)   Seconds in section "DO_OCEANIC_PHYS     [FORWARD_STEP]":
(PID.TID 0000.0001)           User time:  0.266947746
(PID.TID 0000.0001)         System time:  0.00400000811
(PID.TID 0000.0001)     Wall clock time:  0.269363165
(PID.TID 0000.0001)          No. starts: 20
(PID.TID 0000.0001)           No. stops: 20
(PID.TID 0000.0001)   Seconds in section "SHELFICE_THERMODYNAMICS [DO_OCEANIC_PHYS]":
(PID.TID 0000.0001)           User time:  0.0559799671
(PID.TID 0000.0001)         System time:  0.
(PID.TID 0000.0001)     Wall clock time:  0.0538759232
(PID.TID 0000.0001)          No. starts: 20
(PID.TID 0000.0001)           No. stops: 20
(PID.TID 0000.0001)   Seconds in section "THERMODYNAMICS      [FORWARD_STEP]":
(PID.TID 0000.0001)           User time:  6.53600645
(PID.TID 0000.0001)         System time:  0.00499901175
(PID.TID 0000.0001)     Wall clock time:  6.54375815
(PID.TID 0000.0001)          No. starts: 20
(PID.TID 0000.0001)           No. stops: 20
(PID.TID 0000.0001)   Seconds in section "DYNAMICS            [FORWARD_STEP]":
(PID.TID 0000.0001)           User time:  17.9652691
(PID.TID 0000.0001)         System time:  0.00599902868
(PID.TID 0000.0001)     Wall clock time:  17.9832091
(PID.TID 0000.0001)          No. starts: 20
(PID.TID 0000.0001)           No. stops: 20
(PID.TID 0000.0001)   Seconds in section "SOLVE_FOR_PRESSURE  [FORWARD_STEP]":
(PID.TID 0000.0001)           User time:  7.38987875
(PID.TID 0000.0001)         System time:  0.00100001693
(PID.TID 0000.0001)     Wall clock time:  7.39392519
(PID.TID 0000.0001)          No. starts: 20
(PID.TID 0000.0001)           No. stops: 20
(PID.TID 0000.0001)   Seconds in section "MOM_CORRECTION_STEP [FORWARD_STEP]":
(PID.TID 0000.0001)           User time:  1.25781059
(PID.TID 0000.0001)         System time:  0.
(PID.TID 0000.0001)     Wall clock time:  1.26019716
(PID.TID 0000.0001)          No. starts: 20
(PID.TID 0000.0001)           No. stops: 20
(PID.TID 0000.0001)   Seconds in section "UPDATE_ETAH         [FORWARD_STEP]":
(PID.TID 0000.0001)           User time:  0.00599908829
(PID.TID 0000.0001)         System time:  0.000999987125
(PID.TID 0000.0001)     Wall clock time:  0.0056912899
(PID.TID 0000.0001)          No. starts: 20
(PID.TID 0000.0001)           No. stops: 20
(PID.TID 0000.0001)   Seconds in section "TRC_CORRECTION_STEP [FORWARD_STEP]":
(PID.TID 0000.0001)           User time:  3.81642056
(PID.TID 0000.0001)         System time:  0.000999987125
(PID.TID 0000.0001)     Wall clock time:  3.81561112
(PID.TID 0000.0001)          No. starts: 20
(PID.TID 0000.0001)           No. stops: 20
(PID.TID 0000.0001)   Seconds in section "BLOCKING_EXCHANGES  [FORWARD_STEP]":
(PID.TID 0000.0001)           User time:  0.480927944
(PID.TID 0000.0001)         System time:  0.
(PID.TID 0000.0001)     Wall clock time:  0.480667114
(PID.TID 0000.0001)          No. starts: 20
(PID.TID 0000.0001)           No. stops: 20
(PID.TID 0000.0001)   Seconds in section "DO_STATEVARS_TAVE   [FORWARD_STEP]":
(PID.TID 0000.0001)           User time:  0.
(PID.TID 0000.0001)         System time:  0.
(PID.TID 0000.0001)     Wall clock time:  0.000682830811
(PID.TID 0000.0001)          No. starts: 20
(PID.TID 0000.0001)           No. stops: 20
(PID.TID 0000.0001)   Seconds in section "MONITOR             [FORWARD_STEP]":
(PID.TID 0000.0001)           User time:  5.25220823
(PID.TID 0000.0001)         System time:  0.000999003649
(PID.TID 0000.0001)     Wall clock time:  5.26039481
(PID.TID 0000.0001)          No. starts: 20
(PID.TID 0000.0001)           No. stops: 20
(PID.TID 0000.0001)   Seconds in section "DO_THE_MODEL_IO     [FORWARD_STEP]":
(PID.TID 0000.0001)           User time:  0.343948364
(PID.TID 0000.0001)         System time:  0.0129979849
(PID.TID 0000.0001)     Wall clock time:  0.357389688
(PID.TID 0000.0001)          No. starts: 20
(PID.TID 0000.0001)           No. stops: 20
(PID.TID 0000.0001)   Seconds in section "DO_WRITE_PICKUP     [FORWARD_STEP]":
(PID.TID 0000.0001)           User time:  0.
(PID.TID 0000.0001)         System time:  0.
(PID.TID 0000.0001)     Wall clock time:  0.000676870346
(PID.TID 0000.0001)          No. starts: 20
(PID.TID 0000.0001)           No. stops: 20
(PID.TID 0000.0001)   Seconds in section "DO_WRITE_PICKUP        [THE_MODEL_MAIN]":
(PID.TID 0000.0001)           User time:  0.826873779
(PID.TID 0000.0001)         System time:  0.285957009
(PID.TID 0000.0001)     Wall clock time:  1.11294699
(PID.TID 0000.0001)          No. starts: 1
(PID.TID 0000.0001)           No. stops: 1
(PID.TID 0000.0001) // ======================================================
(PID.TID 0000.0001) // Tile <-> Tile communication statistics
(PID.TID 0000.0001) // ======================================================
(PID.TID 0000.0001) // o Tile number: 000001
(PID.TID 0000.0001) //         No. X exchanges =              0
(PID.TID 0000.0001) //            Max. X spins =              0
(PID.TID 0000.0001) //            Min. X spins =     1000000000
(PID.TID 0000.0001) //          Total. X spins =              0
(PID.TID 0000.0001) //            Avg. X spins =       0.00E+00
(PID.TID 0000.0001) //         No. Y exchanges =              0
(PID.TID 0000.0001) //            Max. Y spins =              0
(PID.TID 0000.0001) //            Min. Y spins =     1000000000
(PID.TID 0000.0001) //          Total. Y spins =              0
(PID.TID 0000.0001) //            Avg. Y spins =       0.00E+00
(PID.TID 0000.0001) // o Tile number: 000002
(PID.TID 0000.0001) //         No. X exchanges =              0
(PID.TID 0000.0001) //            Max. X spins =              0
(PID.TID 0000.0001) //            Min. X spins =     1000000000
(PID.TID 0000.0001) //          Total. X spins =              0
(PID.TID 0000.0001) //            Avg. X spins =       0.00E+00
(PID.TID 0000.0001) //         No. Y exchanges =              0
(PID.TID 0000.0001) //            Max. Y spins =              0
(PID.TID 0000.0001) //            Min. Y spins =     1000000000
(PID.TID 0000.0001) //          Total. Y spins =              0
(PID.TID 0000.0001) //            Avg. Y spins =       0.00E+00
(PID.TID 0000.0001) // o Thread number: 000001
(PID.TID 0000.0001) //            No. barriers =          58944
(PID.TID 0000.0001) //      Max. barrier spins =              1
(PID.TID 0000.0001) //      Min. barrier spins =              1
(PID.TID 0000.0001) //     Total barrier spins =          58944
(PID.TID 0000.0001) //      Avg. barrier spins =       1.00E+00
