(PID.TID 0000.0001) 
(PID.TID 0000.0001) // ======================================================
(PID.TID 0000.0001) //                      MITgcm UV
(PID.TID 0000.0001) //                      =========
(PID.TID 0000.0001) // ======================================================
(PID.TID 0000.0001) // execution environment starting up...
(PID.TID 0000.0001) 
(PID.TID 0000.0001) // MITgcmUV version:  checkpoint67k
(PID.TID 0000.0001) // Build user:        jmc
(PID.TID 0000.0001) // Build host:        baudelaire
(PID.TID 0000.0001) // Build date:        Fri Aug 30 13:43:23 EDT 2019
(PID.TID 0000.0001) 
(PID.TID 0000.0001) // =======================================================
(PID.TID 0000.0001) // Execution Environment parameter file "eedata"
(PID.TID 0000.0001) // =======================================================
(PID.TID 0000.0001) ># Example "eedata" file
(PID.TID 0000.0001) ># Lines beginning "#" are comments
(PID.TID 0000.0001) ># nTx - No. threads per process in X
(PID.TID 0000.0001) ># nTy - No. threads per process in Y
(PID.TID 0000.0001) > &EEPARMS
(PID.TID 0000.0001) > /
(PID.TID 0000.0001) ># Note: Some systems use & as the
(PID.TID 0000.0001) ># namelist terminator. Other systems
(PID.TID 0000.0001) ># use a / character (as shown here).
(PID.TID 0000.0001) 
(PID.TID 0000.0001) // =======================================================
(PID.TID 0000.0001) // Computational Grid Specification ( see files "SIZE.h" )
(PID.TID 0000.0001) //                                  ( and "eedata"       )
(PID.TID 0000.0001) // =======================================================
(PID.TID 0000.0001)      nPx =    1 ; /* No. processes in X */
(PID.TID 0000.0001)      nPy =    1 ; /* No. processes in Y */
(PID.TID 0000.0001)      nSx =    1 ; /* No. tiles in X per process */
(PID.TID 0000.0001)      nSy =    1 ; /* No. tiles in Y per process */
(PID.TID 0000.0001)      sNx =    3 ; /* Tile size in X */
(PID.TID 0000.0001)      sNy =  200 ; /* Tile size in Y */
(PID.TID 0000.0001)      OLx =    3 ; /* Tile overlap distance in X */
(PID.TID 0000.0001)      OLy =    3 ; /* Tile overlap distance in Y */
(PID.TID 0000.0001)      nTx =    1 ; /* No. threads in X per process */
(PID.TID 0000.0001)      nTy =    1 ; /* No. threads in Y per process */
(PID.TID 0000.0001)       Nr =   90 ; /* No. levels in the vertical   */
(PID.TID 0000.0001)       Nx =    3 ; /* Total domain size in X ( = nPx*nSx*sNx ) */
(PID.TID 0000.0001)       Ny =  200 ; /* Total domain size in Y ( = nPy*nSy*sNy ) */
(PID.TID 0000.0001)   nTiles =    1 ; /* Total no. tiles per process ( = nSx*nSy ) */
(PID.TID 0000.0001)   nProcs =    1 ; /* Total no. processes ( = nPx*nPy ) */
(PID.TID 0000.0001) nThreads =    1 ; /* Total no. threads per process ( = nTx*nTy ) */
(PID.TID 0000.0001) usingMPI =    F ; /* Flag used to control whether MPI is in use */
(PID.TID 0000.0001)                   /*  note: To execute a program with MPI calls */
(PID.TID 0000.0001)                   /*  it must be launched appropriately e.g     */
(PID.TID 0000.0001)                   /*  "mpirun -np 64 ......"                    */
(PID.TID 0000.0001) useCoupler=    F ;/* Flag used to control communications with   */
(PID.TID 0000.0001)                   /*  other model components, through a coupler */
(PID.TID 0000.0001) useNest2W_parent =    F ;/* Control 2-W Nesting comm */
(PID.TID 0000.0001) useNest2W_child  =    F ;/* Control 2-W Nesting comm */
(PID.TID 0000.0001) debugMode =    F ; /* print debug msg. (sequence of S/R calls)  */
(PID.TID 0000.0001) printMapIncludesZeros=    F ; /* print zeros in Std.Output maps */
(PID.TID 0000.0001) maxLengthPrt1D=   65 /* maxLength of 1D array printed to StdOut */
(PID.TID 0000.0001) 
(PID.TID 0000.0001) // ======================================================
(PID.TID 0000.0001) // Mapping of tiles to threads
(PID.TID 0000.0001) // ======================================================
(PID.TID 0000.0001) // -o- Thread   1, tiles (   1:   1,   1:   1)
(PID.TID 0000.0001) 
(PID.TID 0000.0001) // ======================================================
(PID.TID 0000.0001) // Tile <-> Tile connectvity table
(PID.TID 0000.0001) // ======================================================
(PID.TID 0000.0001) // Tile number: 000001 (process no. = 000000)
(PID.TID 0000.0001) //        WEST: Tile = 000001, Process = 000000, Comm = put
(PID.TID 0000.0001) //                bi = 000001, bj = 000001
(PID.TID 0000.0001) //        EAST: Tile = 000001, Process = 000000, Comm = put
(PID.TID 0000.0001) //                bi = 000001, bj = 000001
(PID.TID 0000.0001) //       SOUTH: Tile = 000001, Process = 000000, Comm = put
(PID.TID 0000.0001) //                bi = 000001, bj = 000001
(PID.TID 0000.0001) //       NORTH: Tile = 000001, Process = 000000, Comm = put
(PID.TID 0000.0001) //                bi = 000001, bj = 000001
(PID.TID 0000.0001) 
(PID.TID 0000.0001)  INI_PARMS: opening model parameter file "data"
(PID.TID 0000.0001)  OPEN_COPY_DATA_FILE: opening file data
(PID.TID 0000.0001) // =======================================================
(PID.TID 0000.0001) // Parameter file "data"
(PID.TID 0000.0001) // =======================================================
(PID.TID 0000.0001) >#:::====================
(PID.TID 0000.0001) ># | Model parameters |
(PID.TID 0000.0001) ># ====================
(PID.TID 0000.0001) >#
(PID.TID 0000.0001) ># Continuous equation parameters
(PID.TID 0000.0001) > &PARM01
(PID.TID 0000.0001) > Tref = 90*-1.9,
(PID.TID 0000.0001) > Sref = 90*34.4,
(PID.TID 0000.0001) > viscAr=1.E-3,
(PID.TID 0000.0001) > viscAhGrid=0.2,
(PID.TID 0000.0001) > viscA4Grid=0.02,
(PID.TID 0000.0001) > no_slip_sides=.FALSE.,
(PID.TID 0000.0001) > no_slip_bottom=.FALSE.,
(PID.TID 0000.0001) > diffKhT= 100.0,
(PID.TID 0000.0001) > diffKrT=5.E-5,
(PID.TID 0000.0001) > diffKhS= 100.0,
(PID.TID 0000.0001) > diffKrS=5.E-5,
(PID.TID 0000.0001) > bottomDragQuadratic=2.5E-3,
(PID.TID 0000.0001) > staggerTimestep = .TRUE.,
(PID.TID 0000.0001) > tempAdvScheme=30,
(PID.TID 0000.0001) > saltAdvScheme=30,
(PID.TID 0000.0001) > vectorInvariantMomentum = .TRUE.,
(PID.TID 0000.0001) >### momImplVertAdv=.TRUE.,
(PID.TID 0000.0001) > tempImplVertAdv=.TRUE.,
(PID.TID 0000.0001) > saltImplVertAdv=.TRUE.,
(PID.TID 0000.0001) > eosType='JMD95Z',
(PID.TID 0000.0001) > HeatCapacity_Cp= 3974.0,
(PID.TID 0000.0001) > rhoConst=1000.,
(PID.TID 0000.0001) > rhoNil=1000.,
(PID.TID 0000.0001) > gravity=9.81,
(PID.TID 0000.0001) > gBaro=9.81,
(PID.TID 0000.0001) >#ivdc_kappa = 0.005.,
(PID.TID 0000.0001) > implicitDiffusion = .TRUE.,
(PID.TID 0000.0001) > implicitViscosity = .TRUE.,
(PID.TID 0000.0001) > implicitFreeSurface=.TRUE.,
(PID.TID 0000.0001) > useRealFreshWaterFlux= .TRUE.,
(PID.TID 0000.0001) > exactConserv=.TRUE.,
(PID.TID 0000.0001) > nonlinFreeSurf=4,
(PID.TID 0000.0001) > hFacInf=0.2,
(PID.TID 0000.0001) > hFacSup=2.0,
(PID.TID 0000.0001) > hFacMin=0.2,
(PID.TID 0000.0001) >#allowFreezing = .TRUE.,
(PID.TID 0000.0001) > useCoriolis=.FALSE.,
(PID.TID 0000.0001) > selectCoriMap = 0,
(PID.TID 0000.0001) > f0 = 0.0,
(PID.TID 0000.0001) >#-
(PID.TID 0000.0001) > readBinaryPrec=64,
(PID.TID 0000.0001) >#writeBinaryPrec=64,
(PID.TID 0000.0001) > useSingleCpuIO=.TRUE.,
(PID.TID 0000.0001) > globalFiles=.TRUE.,
(PID.TID 0000.0001) > debuglevel = 1,
(PID.TID 0000.0001) > /
(PID.TID 0000.0001) >
(PID.TID 0000.0001) ># Elliptic solver parameters
(PID.TID 0000.0001) > &PARM02
(PID.TID 0000.0001) > cg2dMaxIters=300,
(PID.TID 0000.0001) > cg2dTargetResidual=1.E-11,
(PID.TID 0000.0001) > /
(PID.TID 0000.0001) >
(PID.TID 0000.0001) >#Time stepping parameters
(PID.TID 0000.0001) > &PARM03
(PID.TID 0000.0001) > nIter0=11395,
(PID.TID 0000.0001) > nTimeSteps=20,
(PID.TID 0000.0001) > deltaT= 300.,
(PID.TID 0000.0001) > forcing_In_AB=.FALSE.,
(PID.TID 0000.0001) > abEps=0.1,
(PID.TID 0000.0001) > cAdjFreq = -1.,
(PID.TID 0000.0001) > pChkptFreq=31104000.,
(PID.TID 0000.0001) > chkptFreq=  7776000.,
(PID.TID 0000.0001) > dumpFreq = 3000.,
(PID.TID 0000.0001) > monitorSelect=1,
(PID.TID 0000.0001) > monitorFreq= 1.,
(PID.TID 0000.0001) > /
(PID.TID 0000.0001) >
(PID.TID 0000.0001) ># Gridding parameters
(PID.TID 0000.0001) > &PARM04
(PID.TID 0000.0001) > useMin4hFacEdges=.TRUE.,
(PID.TID 0000.0001) > usingSphericalPolarGrid=.TRUE.,
(PID.TID 0000.0001) > delR=90*10.,
(PID.TID 0000.0001) > delX=3*0.125,
(PID.TID 0000.0001) > delY=200*0.0078125,
(PID.TID 0000.0001) ># delYFile='dlat.bin',
(PID.TID 0000.0001) > xgOrigin = -105.5,
(PID.TID 0000.0001) > ygOrigin =  -75.4457,
(PID.TID 0000.0001) > /
(PID.TID 0000.0001) >
(PID.TID 0000.0001) ># Input datasets
(PID.TID 0000.0001) > &PARM05
(PID.TID 0000.0001) > bathyFile='bathy.box',
(PID.TID 0000.0001) > hydrogThetaFile='theta.init',	
(PID.TID 0000.0001) > hydrogSaltFile='salt.init',
(PID.TID 0000.0001) > pSurfInitFile='etainit.round.bin',
(PID.TID 0000.0001) > /
(PID.TID 0000.0001) 
(PID.TID 0000.0001)  INI_PARMS ; starts to read PARM01
(PID.TID 0000.0001)  INI_PARMS ; read PARM01 : OK
(PID.TID 0000.0001)  INI_PARMS ; starts to read PARM02
(PID.TID 0000.0001)  INI_PARMS ; read PARM02 : OK
(PID.TID 0000.0001)  INI_PARMS ; starts to read PARM03
(PID.TID 0000.0001)  INI_PARMS ; read PARM03 : OK
(PID.TID 0000.0001)  INI_PARMS ; starts to read PARM04
(PID.TID 0000.0001)  INI_PARMS ; read PARM04 : OK
(PID.TID 0000.0001)  INI_PARMS ; starts to read PARM05
(PID.TID 0000.0001)  INI_PARMS ; read PARM05 : OK
(PID.TID 0000.0001)  INI_PARMS: finished reading file "data"
(PID.TID 0000.0001)  PACKAGES_BOOT: opening data.pkg
(PID.TID 0000.0001)  OPEN_COPY_DATA_FILE: opening file data.pkg
(PID.TID 0000.0001) // =======================================================
(PID.TID 0000.0001) // Parameter file "data.pkg"
(PID.TID 0000.0001) // =======================================================
(PID.TID 0000.0001) ># Packages
(PID.TID 0000.0001) > &PACKAGES
(PID.TID 0000.0001) > useOBCS      = .TRUE.,
(PID.TID 0000.0001) > useShelfIce  = .TRUE.,
(PID.TID 0000.0001) > useStreamIce = .TRUE.,
(PID.TID 0000.0001) > useDiagnostics=.TRUE.,
(PID.TID 0000.0001) > /
(PID.TID 0000.0001) 
(PID.TID 0000.0001)  PACKAGES_BOOT: finished reading data.pkg
(PID.TID 0000.0001)  PACKAGES_BOOT: On/Off package Summary
 --------  pkgs with a standard "usePKG" On/Off switch in "data.pkg":  --------
 pkg/obcs                 compiled   and   used ( useOBCS                  = T )
 pkg/shelfice             compiled   and   used ( useShelfIce              = T )
 pkg/streamice            compiled   and   used ( useStreamIce             = T )
 pkg/diagnostics          compiled   and   used ( useDiagnostics           = T )
 -------- pkgs without standard "usePKG" On/Off switch in "data.pkg":  --------
 pkg/generic_advdiff      compiled   and   used ( useGAD                   = T )
 pkg/mom_common           compiled   and   used ( momStepping              = T )
 pkg/mom_vecinv           compiled   and   used ( +vectorInvariantMomentum = T )
 pkg/mom_fluxform         compiled but not used ( & not vectorInvariantMom = F )
 pkg/monitor              compiled   and   used ( monitorFreq > 0.         = T )
 pkg/debug                compiled but not used ( debugMode                = F )
 pkg/rw                   compiled   and   used
 pkg/mdsio                compiled   and   used
(PID.TID 0000.0001)  PACKAGES_BOOT: End of package Summary
(PID.TID 0000.0001) 
(PID.TID 0000.0001)  OBCS_READPARMS: opening data.obcs
(PID.TID 0000.0001)  OPEN_COPY_DATA_FILE: opening file data.obcs
(PID.TID 0000.0001) // =======================================================
(PID.TID 0000.0001) // Parameter file "data.obcs"
(PID.TID 0000.0001) // =======================================================
(PID.TID 0000.0001) ># Open-boundaries
(PID.TID 0000.0001) > &OBCS_PARM01
(PID.TID 0000.0001) > OB_Jnorth=3*200,
(PID.TID 0000.0001) > useOBCSprescribe=.true.,
(PID.TID 0000.0001) > useOBCSsponge=.false.,
(PID.TID 0000.0001) ># OBWuFile='uvel.obw',
(PID.TID 0000.0001) > OBNvFile='vvel.obw',
(PID.TID 0000.0001) > OBNtFile='theta.obw',
(PID.TID 0000.0001) > OBNsFile='salt.obw',
(PID.TID 0000.0001) > useOrlanskiNorth=.FALSE.,
(PID.TID 0000.0001) > useOBCSbalance=.TRUE.,
(PID.TID 0000.0001) > OBCS_balanceFacN=1.,
(PID.TID 0000.0001) > /
(PID.TID 0000.0001) >
(PID.TID 0000.0001) ># Orlanski parameters
(PID.TID 0000.0001) > &OBCS_PARM02
(PID.TID 0000.0001) >#Cmax=0.45,
(PID.TID 0000.0001) >#cVelTimeScale=1000.,
(PID.TID 0000.0001) > /
(PID.TID 0000.0001) >
(PID.TID 0000.0001) ># Sponge layer parameters
(PID.TID 0000.0001) > &OBCS_PARM03
(PID.TID 0000.0001) > spongeThickness = 20,
(PID.TID 0000.0001) > Vrelaxobcsbound = 864000.,
(PID.TID 0000.0001) > Urelaxobcsbound = 864000.,
(PID.TID 0000.0001) > /
(PID.TID 0000.0001) 
(PID.TID 0000.0001)  OBCS_READPARMS: finished reading data.obcs
(PID.TID 0000.0001)  OB_indexUnset = /* unset OB index value (i.e. no OB) */
(PID.TID 0000.0001)                       0
(PID.TID 0000.0001)     ;
(PID.TID 0000.0001)  Northern OB global indices : OB_Jnorth =
(PID.TID 0000.0001)     3 @      200                            /* I =  1:  3 */
(PID.TID 0000.0001)  Southern OB global indices : OB_Jsouth =
(PID.TID 0000.0001)     3 @        0                            /* I =  1:  3 */
(PID.TID 0000.0001)  Eastern  OB global indices : OB_Ieast =
(PID.TID 0000.0001)   200 @        0                            /* J =  1:200 */
(PID.TID 0000.0001)  Western  OB global indices : OB_Iwest =
(PID.TID 0000.0001)   200 @        0                            /* J =  1:200 */
(PID.TID 0000.0001) 
(PID.TID 0000.0001) STREAMICE_READPARMS: opening data.streamice
(PID.TID 0000.0001)  OPEN_COPY_DATA_FILE: opening file data.streamice
(PID.TID 0000.0001) // =======================================================
(PID.TID 0000.0001) // Parameter file "data.streamice"
(PID.TID 0000.0001) // =======================================================
(PID.TID 0000.0001) ># ====================================
(PID.TID 0000.0001) ># | Parameters for STREAMICE package |
(PID.TID 0000.0001) ># ====================================
(PID.TID 0000.0001) > &STREAMICE_PARM01
(PID.TID 0000.0001) > streamice_maxnliter_cpl = 1,
(PID.TID 0000.0001) > streamice_maxcgiter_cpl = 700,
(PID.TID 0000.0001) > STREAMICE_allow_cpl=.true.,
(PID.TID 0000.0001) > streamice_vel_update = 43200.,
(PID.TID 0000.0001) > streamice_density = 917.,
(PID.TID 0000.0001) > streamice_density_ocean_avg = 1028.,
(PID.TID 0000.0001) > B_glen_isothermal = 700.,
(PID.TID 0000.0001) > C_basal_fric_const = 5.,
(PID.TID 0000.0001) > n_glen = 3.0,
(PID.TID 0000.0001) > n_basal_friction = 1.,
(PID.TID 0000.0001) > streamice_diagnostic_only=.false.,
(PID.TID 0000.0001) > eps_glen_min = 1.0e-12,
(PID.TID 0000.0001) > eps_u_min = 1.0e-12,
(PID.TID 0000.0001) > streamice_cg_tol = 1.0e-6,
(PID.TID 0000.0001) > STREAMICE_lower_cg_tol = .true.,
(PID.TID 0000.0001) > streamice_nonlin_tol = .000001,
(PID.TID 0000.0001) > streamice_nonlin_tol_fp = .00000001,
(PID.TID 0000.0001) > streamice_max_cg_iter = 700,
(PID.TID 0000.0001) > streamice_max_nl_iter = 70,
(PID.TID 0000.0001) > STREAMICE_calve_to_mask = .false.,
(PID.TID 0000.0001) > streamice_CFL_factor = 0.5,
(PID.TID 0000.0001) > STREAMICE_dump_mdsio = .true.,
(PID.TID 0000.0001) > streamice_bg_surf_slope_x = 0.,
(PID.TID 0000.0001) > STREAMICEthickInit='FILE',
(PID.TID 0000.0001) > STREAMICEthickFile='h0.bin',
(PID.TID 0000.0001) > STREAMICEtopogFile='bathy.box',
(PID.TID 0000.0001) > STREAMICEuFaceBdryFile = 'ufacemask3.box',
(PID.TID 0000.0001) > STREAMICEvFaceBdryFile = 'vfacemask3.box',
(PID.TID 0000.0001) ># STREAMICEvMassFluxFile='vmassflux3.box',
(PID.TID 0000.0001) > STREAMICEvDirichValsFile='vdirich.box',
(PID.TID 0000.0001) > STREAMICEhmaskFile = 'hmask3.box',
(PID.TID 0000.0001) > STREAMICEHBCyFile = 'HBCy.box',
(PID.TID 0000.0001) > STREAMICEbasalTracConfig='UNIFORM',
(PID.TID 0000.0001) > STREAMICEGlenConstConfig='UNIFORM',
(PID.TID 0000.0001) > STREAMICE_chkfixedptconvergence=.true.,
(PID.TID 0000.0001) > STREAMICE_chkresidconvergence=.false.,
(PID.TID 0000.0001) > streamice_buttr_width=200.e3,
(PID.TID 0000.0001) > useStreamiceFlowlineButtr=.true.,
(PID.TID 0000.0001) > /
(PID.TID 0000.0001) >
(PID.TID 0000.0001) > &STREAMICE_PARM02
(PID.TID 0000.0001) > shelf_max_draft = 1300.0,
(PID.TID 0000.0001) > shelf_min_draft = 300.0,
(PID.TID 0000.0001) > shelf_edge_pos = 70.0e3,
(PID.TID 0000.0001) > shelf_slope_scale = 62.0e3,
(PID.TID 0000.0001) > shelf_flat_width = 20.0e3,
(PID.TID 0000.0001) > /
(PID.TID 0000.0001) >
(PID.TID 0000.0001) ># &STREAMICE_PARMPETSC
(PID.TID 0000.0001) ># PETSC_SOLVER_TYPE = 'CG',
(PID.TID 0000.0001) ># PETSC_PRECOND_TYPE = 'GAMG',
(PID.TID 0000.0001) ># &
(PID.TID 0000.0001) >
(PID.TID 0000.0001) > &STREAMICE_PARM03
(PID.TID 0000.0001) > min_x_noflow_north = -200.0,
(PID.TID 0000.0001) > max_x_noflow_north = 0.0,
(PID.TID 0000.0001) > min_x_noflow_south = -200.0,
(PID.TID 0000.0001) > max_x_noflow_south = 0.0,
(PID.TID 0000.0001) > min_y_noflow_WEST = 0.0,
(PID.TID 0000.0001) > max_y_noflow_WEST = 0.0,
(PID.TID 0000.0001) > min_y_noflow_EAST = -180.0,
(PID.TID 0000.0001) > max_y_noflow_EAST = 0.0,
(PID.TID 0000.0001) > min_x_noStress_NORTH = 0.0e3,
(PID.TID 0000.0001) > max_x_noStress_NORTH = 0.0e3,
(PID.TID 0000.0001) > min_x_noStress_SOUTH = 0.0e3,
(PID.TID 0000.0001) > max_x_noStress_SOUTH = 0.0e3,
(PID.TID 0000.0001) > min_y_noStress_WEST = -1.0,
(PID.TID 0000.0001) > max_y_noStress_WEST = -1.0,
(PID.TID 0000.0001) > min_y_noStress_EAST = -1.0,
(PID.TID 0000.0001) > max_y_noStress_EAST = -1.0,
(PID.TID 0000.0001) > min_x_FluxBdry_NORTH = -1.0,
(PID.TID 0000.0001) > max_x_FluxBdry_NORTH = -1.0,
(PID.TID 0000.0001) > min_x_FluxBdry_SOUTH = -1.0,
(PID.TID 0000.0001) > max_x_FluxBdry_SOUTH = -1.0,
(PID.TID 0000.0001) > min_y_FluxBdry_WEST = 0.0,
(PID.TID 0000.0001) > max_y_FluxBdry_WEST = 0.0,
(PID.TID 0000.0001) > min_y_FluxBdry_EAST = -180.0,
(PID.TID 0000.0001) > max_y_FluxBdry_EAST = 0.0,
(PID.TID 0000.0001) > min_x_Dirich_NORTH = -1.0,
(PID.TID 0000.0001) > max_x_Dirich_NORTH = -1.0,
(PID.TID 0000.0001) > min_x_Dirich_SOUTH = -1.0,
(PID.TID 0000.0001) > max_x_Dirich_SOUTH = -1.0,
(PID.TID 0000.0001) > min_y_Dirich_WEST = -1.0,
(PID.TID 0000.0001) > max_y_Dirich_WEST = -1.0,
(PID.TID 0000.0001) > min_y_Dirich_EAST = -1.0,
(PID.TID 0000.0001) > max_y_Dirich_EAST = -1.0,
(PID.TID 0000.0001) > min_x_CFBC_NORTH = -1.0,
(PID.TID 0000.0001) > max_x_CFBC_NORTH = -1.0,
(PID.TID 0000.0001) > min_x_CFBC_SOUTH = -1.0,
(PID.TID 0000.0001) > max_x_CFBC_SOUTH = -1.0,
(PID.TID 0000.0001) > min_y_CFBC_WEST = -180.0,
(PID.TID 0000.0001) > max_y_CFBC_WEST = 0.0,
(PID.TID 0000.0001) > min_y_CFBC_EAST = 0.0,
(PID.TID 0000.0001) > max_y_CFBC_EAST = 0.0e3,
(PID.TID 0000.0001) > flux_bdry_val_EAST =1.5e6,
(PID.TID 0000.0001) > STREAMICE_NS_periodic = .false.,
(PID.TID 0000.0001) > STREAMICE_EW_periodic = .false.,
(PID.TID 0000.0001) > /
(PID.TID 0000.0001) 
(PID.TID 0000.0001) STREAMICE_READPARMS: read first param block
(PID.TID 0000.0001) STREAMICE_READPARMS: read third param block
(PID.TID 0000.0001)  SHELFICE_READPARMS: opening data.shelfice
(PID.TID 0000.0001)  OPEN_COPY_DATA_FILE: opening file data.shelfice
(PID.TID 0000.0001) // =======================================================
(PID.TID 0000.0001) // Parameter file "data.shelfice"
(PID.TID 0000.0001) // =======================================================
(PID.TID 0000.0001) ># ===================================
(PID.TID 0000.0001) ># | Parameters for SHELFICE package |
(PID.TID 0000.0001) ># ===================================
(PID.TID 0000.0001) > &SHELFICE_PARM01
(PID.TID 0000.0001) > SHELFICEwriteState = .true.,
(PID.TID 0000.0001) > SHELFICEconserve = .true.,
(PID.TID 0000.0001) > SHELFICEboundaryLayer = .true.,
(PID.TID 0000.0001) > SHELFICEtopoFile='shelftopo.round.bin',
(PID.TID 0000.0001) > SHELFICErealFWflux =.true.,
(PID.TID 0000.0001) > SHELFICEmassFile = 'shelficemassinit.bin',
(PID.TID 0000.0001) > SHELFICEuseGammaFrict = .true.,
(PID.TID 0000.0001) > SHELFICEDragQuadratic = 0.0075,
(PID.TID 0000.0001) > shiCdrag = 0.0075,
(PID.TID 0000.0001) ># SHELFICEheatTransCoeff = 0.,
(PID.TID 0000.0001) ># SHELFICEsaltTransCoeff = 0.,
(PID.TID 0000.0001) > SHELFICEMassStepping = .true.,
(PID.TID 0000.0001) > SHELFICERemeshFrequency = 3000.0,
(PID.TID 0000.0001) > SHELFICESplitThreshold =1.25,
(PID.TID 0000.0001) > SHELFICEMergeThreshold =0.24,
(PID.TID 0000.0001) ># conserve_ssh = .true.,
(PID.TID 0000.0001) ># shelfice_dig_ice = .false.
(PID.TID 0000.0001) ># shelfice_massmin_trueDens=.false.
(PID.TID 0000.0001) > /
(PID.TID 0000.0001) 
(PID.TID 0000.0001)  SHELFICE_READPARMS: finished reading data.shelfice
(PID.TID 0000.0001)  DIAGNOSTICS_READPARMS: opening data.diagnostics
(PID.TID 0000.0001)  OPEN_COPY_DATA_FILE: opening file data.diagnostics
(PID.TID 0000.0001) // =======================================================
(PID.TID 0000.0001) // Parameter file "data.diagnostics"
(PID.TID 0000.0001) // =======================================================
(PID.TID 0000.0001) ># Diagnostic Package Choices
(PID.TID 0000.0001) >#-----------------
(PID.TID 0000.0001) ># for each output-stream:
(PID.TID 0000.0001) >#  filename(n) : prefix of the output file name (only 8.c long) for outp.stream n
(PID.TID 0000.0001) >#  frequency(n):< 0 : write snap-shot output every |frequency| seconds
(PID.TID 0000.0001) >#               > 0 : write time-average output every frequency seconds
(PID.TID 0000.0001) >#  timePhase(n)     : write at time = timePhase + multiple of |frequency|
(PID.TID 0000.0001) >#  averagingFreq(n) : frequency (in s) for periodic averaging interval
(PID.TID 0000.0001) >#  averagingPhase(n): phase     (in s) for periodic averaging interval
(PID.TID 0000.0001) >#  repeatCycle(n)   : number of averaging intervals in 1 cycle
(PID.TID 0000.0001) >#  levels(:,n) : list of levels to write to file (Notes: declared as REAL)
(PID.TID 0000.0001) >#                 when this entry is missing, select all common levels of this list
(PID.TID 0000.0001) >#  fields(:,n) : list of diagnostics fields (8.c) (see "available_diagnostics.log"
(PID.TID 0000.0001) >#                 file for the list of all available diag. in this particular config)
(PID.TID 0000.0001) >#-----------------
(PID.TID 0000.0001) > &DIAGNOSTICS_LIST
(PID.TID 0000.0001) ># diag_mnc     = .FALSE.,
(PID.TID 0000.0001) ># dumpAtLast   = .TRUE.,
(PID.TID 0000.0001) >  fields(1:13,1) =
(PID.TID 0000.0001) >#       'ETAN    ','oceTAUX ','oceTAUY ',
(PID.TID 0000.0001) >#                 'oceQnet ','oceFWflx','MXLDEPTH',
(PID.TID 0000.0001) >                'SHIfwFlx','SHIhtFlx','SHIgammT','SHIgammS',
(PID.TID 0000.0001) >                'SHI_mass','SHIRshel',
(PID.TID 0000.0001) >                 'SI_Uvel ','SI_Vvel ','SI_Thick','SI_hmask',
(PID.TID 0000.0001) >                 'SI_float','SHIuStar'
(PID.TID 0000.0001) >#                 'SHIuLocM','SHIvLocM','SHIwLocM','SHItLocM','SHIsLocM',
(PID.TID 0000.0001) >#		 'SHItLocB','SHIsLocB'
(PID.TID 0000.0001) >#                'SHIForcT','SHIForcS',
(PID.TID 0000.0001) >#                'surForcT','surForcS','TFLUX   ','SFLUX   ','oceFreez',
(PID.TID 0000.0001) >#                 'TRELAX  ','SRELAX  ',
(PID.TID 0000.0001) >#                'GM_VisbK',
(PID.TID 0000.0001) >#  fields(1,1)='ETAN'
(PID.TID 0000.0001) >   filename(1) = 'surfDiag',
(PID.TID 0000.0001) >  frequency(1) =  300,
(PID.TID 0000.0001) >#   fields(1:7,2) = 'UVEL    ','VVEL    ','WVEL    ',
(PID.TID 0000.0001) >#                 'THETA   ','SALT    ','RHOAnoma', 'CONVADJ',
(PID.TID 0000.0001) >#   filename(2) = 'dynDiag',
(PID.TID 0000.0001) >#  frequency(2) =  2592000.,
(PID.TID 0000.0001) >#   fields(1:5,3) = 'SI_Uvel ','SI_Vvel ','SI_Thick','SI_hmask','SI_float',
(PID.TID 0000.0001) >#   filename(3) = 'streamice',
(PID.TID 0000.0001) >#  frequency(3) =  2592000.,
(PID.TID 0000.0001) >#  fields(1,3) = 'EXFpreci','EXFuwind','EXFvwind','EXFtaux ','EXFtauy ',
(PID.TID 0000.0001) >#                'EXFlwdn ','EXFswdn ','EXFatemp','EXFaqh  ','EXFpress',
(PID.TID 0000.0001) >#                'GM_PsiX ','GM_PsiY ',
(PID.TID 0000.0001) >#                'GM_Kwx  ','GM_Kwy  ','GM_Kwz  ',
(PID.TID 0000.0001) >#                'GM_Kux  ','GM_Kvy  ',
(PID.TID 0000.0001) >#                'GM_Kuz  ','GM_Kvz  ',
(PID.TID 0000.0001) >#- disable this output list by commenting out the file name
(PID.TID 0000.0001) >#  filename(3) = 'diagsEXF',
(PID.TID 0000.0001) ># frequency(3) = 1.,
(PID.TID 0000.0001) >#  fields(1,4) = 'ADVx_TH ','ADVy_TH ','ADVr_TH ',
(PID.TID 0000.0001) >#                'DIFx_TH ','DIFy_TH ','DFrE_TH ',
(PID.TID 0000.0001) >#                'DFrI_TH ',
(PID.TID 0000.0001) >#                'ADVx_SLT',
(PID.TID 0000.0001) >#  filename(4) = 'flxDiag',
(PID.TID 0000.0001) ># frequency(4) = 1296000.,
(PID.TID 0000.0001) > /
(PID.TID 0000.0001) >
(PID.TID 0000.0001) ># Parameter for Diagnostics of per level statistics:
(PID.TID 0000.0001) >#-----------------
(PID.TID 0000.0001) ># for each output-stream:
(PID.TID 0000.0001) >#  stat_fname(n) : prefix of the output file name (only 8.c long) for outp.stream n
(PID.TID 0000.0001) >#  stat_freq(n):< 0 : write snap-shot output every |stat_freq| seconds
(PID.TID 0000.0001) >#               > 0 : write time-average output every stat_freq seconds
(PID.TID 0000.0001) >#  stat_phase(n)    : write at time = stat_phase + multiple of |stat_freq|
(PID.TID 0000.0001) >#  stat_region(:,n) : list of "regions" (default: 1 region only=global)
(PID.TID 0000.0001) >#  stat_fields(:,n) : list of diagnostics fields (8.c) (see "available_diagnostics.log"
(PID.TID 0000.0001) >#                 file for the list of all available diag. in this particular config)
(PID.TID 0000.0001) >#-----------------
(PID.TID 0000.0001) > &DIAG_STATIS_PARMS
(PID.TID 0000.0001) >#- regional mask: 3 lat. band: 1 : y <= -24 ; 2 : -24<y<24 ; 3 : 24 <= y
(PID.TID 0000.0001) ># diagSt_regMaskFile='regMask_lat24.bin',
(PID.TID 0000.0001) ># nSetRegMskFile=1,
(PID.TID 0000.0001) ># set_regMask(1)= 1,  1,  1,
(PID.TID 0000.0001) ># val_regMask(1)= 1., 2., 3.,
(PID.TID 0000.0001) >#---
(PID.TID 0000.0001) >#stat_fields(1,1)= 'ETAN    ','UVEL    ','VVEL    ','WVEL    ',
(PID.TID 0000.0001) >#                  'THETA   ','SALT    ','SIarea  ','SIheff  ',
(PID.TID 0000.0001) >#   stat_fname(1)= 'dynStDiag',
(PID.TID 0000.0001) >#    stat_freq(1)= 864000.,
(PID.TID 0000.0001) > /
(PID.TID 0000.0001) >
(PID.TID 0000.0001) 
(PID.TID 0000.0001) S/R DIAGNOSTICS_READPARMS, read namelist "diagnostics_list": start
(PID.TID 0000.0001) S/R DIAGNOSTICS_READPARMS, read namelist "diagnostics_list": OK
(PID.TID 0000.0001) S/R DIAGNOSTICS_READPARMS, read namelist "DIAG_STATIS_PARMS": start
(PID.TID 0000.0001) S/R DIAGNOSTICS_READPARMS, read namelist "DIAG_STATIS_PARMS": OK
(PID.TID 0000.0001)  DIAGNOSTICS_READPARMS: global parameter summary:
(PID.TID 0000.0001)  dumpAtLast = /* always write time-ave diags at the end */
(PID.TID 0000.0001)                   F
(PID.TID 0000.0001)     ;
(PID.TID 0000.0001)  diag_mnc =   /* write NetCDF output files */
(PID.TID 0000.0001)                   F
(PID.TID 0000.0001)     ;
(PID.TID 0000.0001)  useMissingValue = /* put MissingValue where mask = 0 */
(PID.TID 0000.0001)                   F
(PID.TID 0000.0001)     ;
(PID.TID 0000.0001)  diagCG_maxIters = /* max number of iters in diag_cg2d */
(PID.TID 0000.0001)                     300
(PID.TID 0000.0001)     ;
(PID.TID 0000.0001)  diagCG_resTarget = /* residual target for diag_cg2d */
(PID.TID 0000.0001)                 9.999999999999999E-12
(PID.TID 0000.0001)     ;
(PID.TID 0000.0001)  diagCG_pcOffDFac = /* preconditioner off-diagonal factor */
(PID.TID 0000.0001)                 9.611687812379854E-01
(PID.TID 0000.0001)     ;
(PID.TID 0000.0001) -----------------------------------------------------
(PID.TID 0000.0001)  DIAGNOSTICS_READPARMS: active diagnostics summary:
(PID.TID 0000.0001) -----------------------------------------------------
(PID.TID 0000.0001) Creating Output Stream: surfDiag
(PID.TID 0000.0001) Output Frequency:        300.000000 ; Phase:           0.000000
(PID.TID 0000.0001)  Averaging Freq.:        300.000000 , Phase:           0.000000 , Cycle:   1
(PID.TID 0000.0001)  missing value: -9.990000000000E+02
(PID.TID 0000.0001)  Levels:    will be set later
(PID.TID 0000.0001)  Fields:    SHIfwFlx SHIhtFlx SHIgammT SHIgammS SHI_mass SHIRshel SI_Uvel  SI_Vvel  SI_Thick SI_hmask
(PID.TID 0000.0001)  Fields:    SI_float SHIuStar
(PID.TID 0000.0001) -----------------------------------------------------
(PID.TID 0000.0001)  DIAGNOSTICS_READPARMS: statistics diags. summary:
(PID.TID 0000.0001) -----------------------------------------------------
(PID.TID 0000.0001) 
(PID.TID 0000.0001) SET_PARMS: done
(PID.TID 0000.0001) Enter INI_VERTICAL_GRID: setInterFDr=    T ; setCenterDr=    F
(PID.TID 0000.0001) %MON XC_max                       =  -1.0518750000000E+02
(PID.TID 0000.0001) %MON XC_min                       =  -1.0543750000000E+02
(PID.TID 0000.0001) %MON XC_mean                      =  -1.0531250000000E+02
(PID.TID 0000.0001) %MON XC_sd                        =   1.0206207261597E-01
(PID.TID 0000.0001) %MON XG_max                       =  -1.0525000000000E+02
(PID.TID 0000.0001) %MON XG_min                       =  -1.0550000000000E+02
(PID.TID 0000.0001) %MON XG_mean                      =  -1.0537500000000E+02
(PID.TID 0000.0001) %MON XG_sd                        =   1.0206207261597E-01
(PID.TID 0000.0001) %MON DXC_max                      =   3.8568974527819E+03
(PID.TID 0000.0001) %MON DXC_min                      =   3.4932435587116E+03
(PID.TID 0000.0001) %MON DXC_mean                     =   3.6752948781653E+03
(PID.TID 0000.0001) %MON DXC_sd                       =   1.0550536922206E+02
(PID.TID 0000.0001) %MON DXF_max                      =   3.8568974527819E+03
(PID.TID 0000.0001) %MON DXF_min                      =   3.4932435587116E+03
(PID.TID 0000.0001) %MON DXF_mean                     =   3.6752948781653E+03
(PID.TID 0000.0001) %MON DXF_sd                       =   1.0550536922206E+02
(PID.TID 0000.0001) %MON DXG_max                      =   3.8559871961701E+03
(PID.TID 0000.0001) %MON DXG_min                      =   3.4923265038643E+03
(PID.TID 0000.0001) %MON DXG_mean                     =   3.6743811666547E+03
(PID.TID 0000.0001) %MON DXG_sd                       =   1.0550734153918E+02
(PID.TID 0000.0001) %MON DXV_max                      =   3.8559871961701E+03
(PID.TID 0000.0001) %MON DXV_min                      =   3.4923265038643E+03
(PID.TID 0000.0001) %MON DXV_mean                     =   3.6743811666547E+03
(PID.TID 0000.0001) %MON DXV_sd                       =   1.0550734153918E+02
(PID.TID 0000.0001) %MON YC_max                       =  -7.3887106250000E+01
(PID.TID 0000.0001) %MON YC_min                       =  -7.5441793750000E+01
(PID.TID 0000.0001) %MON YC_mean                      =  -7.4664449999999E+01
(PID.TID 0000.0001) %MON YC_sd                        =   4.5104925958293E-01
(PID.TID 0000.0001) %MON YG_max                       =  -7.3891012500000E+01
(PID.TID 0000.0001) %MON YG_min                       =  -7.5445700000000E+01
(PID.TID 0000.0001) %MON YG_mean                      =  -7.4668356249999E+01
(PID.TID 0000.0001) %MON YG_sd                        =   4.5104925958293E-01
(PID.TID 0000.0001) %MON DYC_max                      =   8.6857401056280E+02
(PID.TID 0000.0001) %MON DYC_min                      =   8.6857401056280E+02
(PID.TID 0000.0001) %MON DYC_mean                     =   8.6857401056280E+02
(PID.TID 0000.0001) %MON DYC_sd                       =   7.6170181273483E-12
(PID.TID 0000.0001) %MON DYF_max                      =   8.6857401056280E+02
(PID.TID 0000.0001) %MON DYF_min                      =   8.6857401056280E+02
(PID.TID 0000.0001) %MON DYF_mean                     =   8.6857401056280E+02
(PID.TID 0000.0001) %MON DYF_sd                       =   7.6170181273483E-12
(PID.TID 0000.0001) %MON DYG_max                      =   8.6857401056280E+02
(PID.TID 0000.0001) %MON DYG_min                      =   8.6857401056280E+02
(PID.TID 0000.0001) %MON DYG_mean                     =   8.6857401056280E+02
(PID.TID 0000.0001) %MON DYG_sd                       =   7.6170181273483E-12
(PID.TID 0000.0001) %MON DYU_max                      =   8.6857401056280E+02
(PID.TID 0000.0001) %MON DYU_min                      =   8.6857401056280E+02
(PID.TID 0000.0001) %MON DYU_mean                     =   8.6857401056280E+02
(PID.TID 0000.0001) %MON DYU_sd                       =   7.6170181273483E-12
(PID.TID 0000.0001) %MON RA_max                       =   3.3500008863052E+06
(PID.TID 0000.0001) %MON RA_min                       =   3.0341405653118E+06
(PID.TID 0000.0001) %MON RA_mean                      =   3.1922656098560E+06
(PID.TID 0000.0001) %MON RA_sd                        =   9.1639221610150E+04
(PID.TID 0000.0001) %MON RAW_max                      =   3.3500008863052E+06
(PID.TID 0000.0001) %MON RAW_min                      =   3.0341405653118E+06
(PID.TID 0000.0001) %MON RAW_mean                     =   3.1922656098560E+06
(PID.TID 0000.0001) %MON RAW_sd                       =   9.1639221610150E+04
(PID.TID 0000.0001) %MON RAS_max                      =   3.3492102610598E+06
(PID.TID 0000.0001) %MON RAS_min                      =   3.0333440353089E+06
(PID.TID 0000.0001) %MON RAS_mean                     =   3.1914719837854E+06
(PID.TID 0000.0001) %MON RAS_sd                       =   9.1640934713506E+04
(PID.TID 0000.0001) %MON RAZ_max                      =   3.3492102610598E+06
(PID.TID 0000.0001) %MON RAZ_min                      =   3.0333440353089E+06
(PID.TID 0000.0001) %MON RAZ_mean                     =   3.1914719837854E+06
(PID.TID 0000.0001) %MON RAZ_sd                       =   9.1640934713506E+04
(PID.TID 0000.0001) %MON AngleCS_max                  =   1.0000000000000E+00
(PID.TID 0000.0001) %MON AngleCS_min                  =   1.0000000000000E+00
(PID.TID 0000.0001) %MON AngleCS_mean                 =   1.0000000000000E+00
(PID.TID 0000.0001) %MON AngleCS_sd                   =   0.0000000000000E+00
(PID.TID 0000.0001) %MON AngleSN_max                  =   0.0000000000000E+00
(PID.TID 0000.0001) %MON AngleSN_min                  =   0.0000000000000E+00
(PID.TID 0000.0001) %MON AngleSN_mean                 =   0.0000000000000E+00
(PID.TID 0000.0001) %MON AngleSN_sd                   =   0.0000000000000E+00
(PID.TID 0000.0001)  nRecords =   2 ; filePrec =  64 ; fileIter =     11395
(PID.TID 0000.0001)     nDims =   2 , dims:
(PID.TID 0000.0001)    1:   3   1   3
(PID.TID 0000.0001)    2: 200   1 200
(PID.TID 0000.0001)     nFlds =   2 , nFl3D =   0 , fields:
(PID.TID 0000.0001)  >SHI_mass< >R_Shelfi<
(PID.TID 0000.0001) missingVal=  1.00000000000000E+00 ; nTimRec =   1 , timeList:
(PID.TID 0000.0001)   3.418500000000E+06
(PID.TID 0000.0001) READ_MFLDS_3D_RL: read field: "SHI_mass", #   1 in fldList, rec=   1
(PID.TID 0000.0001) READ_MFLDS_3D_RL: read field: "R_Shelfi", #   2 in fldList, rec=   2
(PID.TID 0000.0001) READ_MFLDS_CHECK: - normal end ; reset MFLDS file-name: pickup_shelfice.0000011395
(PID.TID 0000.0001) GAD_INIT_FIXED: GAD_OlMinSize=  2  0  1
(PID.TID 0000.0001) 
(PID.TID 0000.0001) // ===================================
(PID.TID 0000.0001) // GAD parameters :
(PID.TID 0000.0001) // ===================================
(PID.TID 0000.0001) tempAdvScheme =   /* Temp. Horiz.Advection scheme selector */
(PID.TID 0000.0001)                      30
(PID.TID 0000.0001)     ;
(PID.TID 0000.0001) tempVertAdvScheme =   /* Temp. Vert. Advection scheme selector */
(PID.TID 0000.0001)                      30
(PID.TID 0000.0001)     ;
(PID.TID 0000.0001) tempMultiDimAdvec =   /* use Muti-Dim Advec method for Temp */
(PID.TID 0000.0001)                   T
(PID.TID 0000.0001)     ;
(PID.TID 0000.0001) tempSOM_Advection = /* use 2nd Order Moment Advection for Temp */
(PID.TID 0000.0001)                   F
(PID.TID 0000.0001)     ;
(PID.TID 0000.0001) AdamsBashforthGt = /* apply Adams-Bashforth extrapolation on Gt */
(PID.TID 0000.0001)                   F
(PID.TID 0000.0001)     ;
(PID.TID 0000.0001) AdamsBashforth_T = /* apply Adams-Bashforth extrapolation on Temp */
(PID.TID 0000.0001)                   F
(PID.TID 0000.0001)     ;
(PID.TID 0000.0001) saltAdvScheme =   /* Salt. Horiz.advection scheme selector */
(PID.TID 0000.0001)                      30
(PID.TID 0000.0001)     ;
(PID.TID 0000.0001) saltVertAdvScheme =   /* Salt. Vert. Advection scheme selector */
(PID.TID 0000.0001)                      30
(PID.TID 0000.0001)     ;
(PID.TID 0000.0001) saltMultiDimAdvec =   /* use Muti-Dim Advec method for Salt */
(PID.TID 0000.0001)                   T
(PID.TID 0000.0001)     ;
(PID.TID 0000.0001) saltSOM_Advection = /* use 2nd Order Moment Advection for Salt */
(PID.TID 0000.0001)                   F
(PID.TID 0000.0001)     ;
(PID.TID 0000.0001) AdamsBashforthGs = /* apply Adams-Bashforth extrapolation on Gs */
(PID.TID 0000.0001)                   F
(PID.TID 0000.0001)     ;
(PID.TID 0000.0001) AdamsBashforth_S = /* apply Adams-Bashforth extrapolation on Salt */
(PID.TID 0000.0001)                   F
(PID.TID 0000.0001)     ;
(PID.TID 0000.0001) // ===================================
(PID.TID 0000.0001) ADDED DIAGS TO LIST
(PID.TID 0000.0001) ------------------------------------------------------------
(PID.TID 0000.0001) DIAGNOSTICS_SET_LEVELS: done
(PID.TID 0000.0001)  Total Nb of available Diagnostics: ndiagt=   217
(PID.TID 0000.0001)  write list of available Diagnostics to file: available_diagnostics.log
(PID.TID 0000.0001) SETDIAG: Allocate  1 x  1 Levels for Diagnostic #   207 SHIfwFlx
(PID.TID 0000.0001) SETDIAG: Allocate  1 x  1 Levels for Diagnostic #   208 SHIhtFlx
(PID.TID 0000.0001) SETDIAG: Allocate  1 x  1 Levels for Diagnostic #   213 SHIgammT
(PID.TID 0000.0001) SETDIAG: Allocate  1 x  1 Levels for Diagnostic #   214 SHIgammS
(PID.TID 0000.0001) SETDIAG: Allocate  1 x  1 Levels for Diagnostic #   216 SHI_mass
(PID.TID 0000.0001) SETDIAG: Allocate  1 x  1 Levels for Diagnostic #   217 SHIRshel
(PID.TID 0000.0001) SETDIAG: Allocate  1 x  1 Levels for Diagnostic #   193 SI_Uvel
(PID.TID 0000.0001) SETDIAG: Allocate  1 x  1 Levels for Diagnostic #   194 SI_Vvel
(PID.TID 0000.0001) SETDIAG: Allocate  1 x  1 Levels for Diagnostic #   195 SI_Thick
(PID.TID 0000.0001) SETDIAG: Allocate  1 x  1 Levels for Diagnostic #   198 SI_hmask
(PID.TID 0000.0001) SETDIAG: Allocate  1 x  1 Levels for Diagnostic #   197 SI_float
(PID.TID 0000.0001) SETDIAG: Allocate  1 x  1 Levels for Diagnostic #   215 SHIuStar
(PID.TID 0000.0001)   space allocated for all diagnostics:      12 levels
(PID.TID 0000.0001) DIAGNOSTICS_SET_POINTERS: Set levels for Outp.Stream: surfDiag
(PID.TID 0000.0001)  Levels:       1.
(PID.TID 0000.0001) DIAGNOSTICS_SET_POINTERS: done
(PID.TID 0000.0001) ------------------------------------------------------------
(PID.TID 0000.0001) DIAGSTATS_SET_REGIONS: define no region
(PID.TID 0000.0001) ------------------------------------------------------------
(PID.TID 0000.0001)   space allocated for all stats-diags:       0 levels
(PID.TID 0000.0001) DIAGSTATS_SET_POINTERS: done
(PID.TID 0000.0001) ------------------------------------------------------------
(PID.TID 0000.0001) %MON fCori_max                    =   0.0000000000000E+00
(PID.TID 0000.0001) %MON fCori_min                    =   0.0000000000000E+00
(PID.TID 0000.0001) %MON fCori_mean                   =   0.0000000000000E+00
(PID.TID 0000.0001) %MON fCori_sd                     =   0.0000000000000E+00
(PID.TID 0000.0001) %MON fCoriG_max                   =   0.0000000000000E+00
(PID.TID 0000.0001) %MON fCoriG_min                   =   0.0000000000000E+00
(PID.TID 0000.0001) %MON fCoriG_mean                  =   0.0000000000000E+00
(PID.TID 0000.0001) %MON fCoriG_sd                    =   0.0000000000000E+00
(PID.TID 0000.0001) %MON fCoriCos_max                 =   0.0000000000000E+00
(PID.TID 0000.0001) %MON fCoriCos_min                 =   0.0000000000000E+00
(PID.TID 0000.0001) %MON fCoriCos_mean                =   0.0000000000000E+00
(PID.TID 0000.0001) %MON fCoriCos_sd                  =   0.0000000000000E+00
(PID.TID 0000.0001) INI_CG2D: CG2D normalisation factor =  2.5039971719217701E-04
(PID.TID 0000.0001) 
(PID.TID 0000.0001) // =======================================================
(PID.TID 0000.0001) // Model configuration
(PID.TID 0000.0001) // =======================================================
(PID.TID 0000.0001) //
(PID.TID 0000.0001) // "Physical" paramters ( PARM01 in namelist )
(PID.TID 0000.0001) //
(PID.TID 0000.0001) buoyancyRelation = /* Type of relation to get Buoyancy */
(PID.TID 0000.0001)               'OCEANIC'
(PID.TID 0000.0001)     ;
(PID.TID 0000.0001) fluidIsAir   =  /* fluid major constituent is Air */
(PID.TID 0000.0001)                   F
(PID.TID 0000.0001)     ;
(PID.TID 0000.0001) fluidIsWater =  /* fluid major constituent is Water */
(PID.TID 0000.0001)                   T
(PID.TID 0000.0001)     ;
(PID.TID 0000.0001) usingPCoords =  /* use p (or p*) vertical coordinate */
(PID.TID 0000.0001)                   F
(PID.TID 0000.0001)     ;
(PID.TID 0000.0001) usingZCoords =  /* use z (or z*) vertical coordinate */
(PID.TID 0000.0001)                   T
(PID.TID 0000.0001)     ;
(PID.TID 0000.0001) tRef =   /* Reference temperature profile ( oC or K ) */
(PID.TID 0000.0001)    90 @ -1.900000000000000E+00              /* K =  1: 90 */
(PID.TID 0000.0001)     ;
(PID.TID 0000.0001) sRef =   /* Reference salinity profile ( psu ) */
(PID.TID 0000.0001)    90 @  3.440000000000000E+01              /* K =  1: 90 */
(PID.TID 0000.0001)     ;
(PID.TID 0000.0001) useStrainTensionVisc= /* Use StrainTension Form of Viscous Operator */
(PID.TID 0000.0001)                   F
(PID.TID 0000.0001)     ;
(PID.TID 0000.0001) useVariableVisc = /* Use variable horizontal viscosity */
(PID.TID 0000.0001)                   T
(PID.TID 0000.0001)     ;
(PID.TID 0000.0001) useHarmonicVisc = /* Use harmonic horizontal viscosity */
(PID.TID 0000.0001)                   T
(PID.TID 0000.0001)     ;
(PID.TID 0000.0001) useBiharmonicVisc= /* Use biharmonic horiz.  viscosity */
(PID.TID 0000.0001)                   T
(PID.TID 0000.0001)     ;
(PID.TID 0000.0001) useSmag3D = /* Use isotropic 3-D Smagorinsky viscosity */
(PID.TID 0000.0001)                   F
(PID.TID 0000.0001)     ;
(PID.TID 0000.0001) viscAh  =   /* Lateral harmonic viscosity ( m^2/s ) */
(PID.TID 0000.0001)                 0.000000000000000E+00
(PID.TID 0000.0001)     ;
(PID.TID 0000.0001) viscAhMax = /* Maximum lateral harmonic viscosity ( m^2/s ) */
(PID.TID 0000.0001)                 1.000000000000000E+21
(PID.TID 0000.0001)     ;
(PID.TID 0000.0001) viscAhGrid = /* Grid dependent lateral harmonic viscosity ( non-dim. ) */
(PID.TID 0000.0001)                 2.000000000000000E-01
(PID.TID 0000.0001)     ;
(PID.TID 0000.0001) useFullLeith = /* Use Full Form of Leith Viscosity on/off flag*/
(PID.TID 0000.0001)                   F
(PID.TID 0000.0001)     ;
(PID.TID 0000.0001) useAreaViscLength = /* Use area for visc length instead of geom. mean*/
(PID.TID 0000.0001)                   F
(PID.TID 0000.0001)     ;
(PID.TID 0000.0001) viscC2leith = /* Leith harmonic visc. factor (on grad(vort),non-dim.) */
(PID.TID 0000.0001)                 0.000000000000000E+00
(PID.TID 0000.0001)     ;
(PID.TID 0000.0001) viscC2leithD = /* Leith harmonic viscosity factor (on grad(div),non-dim.)*/
(PID.TID 0000.0001)                 0.000000000000000E+00
(PID.TID 0000.0001)     ;
(PID.TID 0000.0001) viscC2LeithQG = /* QG Leith harmonic viscosity factor (non-dim.)*/
(PID.TID 0000.0001)                 0.000000000000000E+00
(PID.TID 0000.0001)     ;
(PID.TID 0000.0001) viscC2smag = /* Smagorinsky harmonic viscosity factor (non-dim.) */
(PID.TID 0000.0001)                 0.000000000000000E+00
(PID.TID 0000.0001)     ;
(PID.TID 0000.0001) viscA4  =   /* Lateral biharmonic viscosity ( m^4/s ) */
(PID.TID 0000.0001)                 0.000000000000000E+00
(PID.TID 0000.0001)     ;
(PID.TID 0000.0001) viscA4Max = /* Maximum biharmonic viscosity ( m^2/s ) */
(PID.TID 0000.0001)                 1.000000000000000E+21
(PID.TID 0000.0001)     ;
(PID.TID 0000.0001) viscA4Grid = /* Grid dependent biharmonic viscosity ( non-dim. ) */
(PID.TID 0000.0001)                 2.000000000000000E-02
(PID.TID 0000.0001)     ;
(PID.TID 0000.0001) viscC4leith = /* Leith biharm viscosity factor (on grad(vort), non-dim.)*/
(PID.TID 0000.0001)                 0.000000000000000E+00
(PID.TID 0000.0001)     ;
(PID.TID 0000.0001) viscC4leithD = /* Leith biharm viscosity factor (on grad(div), non-dim.) */
(PID.TID 0000.0001)                 0.000000000000000E+00
(PID.TID 0000.0001)     ;
(PID.TID 0000.0001) viscC4Smag = /* Smagorinsky biharm viscosity factor (non-dim) */
(PID.TID 0000.0001)                 0.000000000000000E+00
(PID.TID 0000.0001)     ;
(PID.TID 0000.0001) no_slip_sides =  /* Viscous BCs: No-slip sides */
(PID.TID 0000.0001)                   F
(PID.TID 0000.0001)     ;
(PID.TID 0000.0001) sideDragFactor = /* side-drag scaling factor (non-dim) */
(PID.TID 0000.0001)                 2.000000000000000E+00
(PID.TID 0000.0001)     ;
(PID.TID 0000.0001) viscArNr = /* vertical profile of vertical viscosity ( m^2/s )*/
(PID.TID 0000.0001)    90 @  1.000000000000000E-03              /* K =  1: 90 */
(PID.TID 0000.0001)     ;
(PID.TID 0000.0001) no_slip_bottom =  /* Viscous BCs: No-slip bottom */
(PID.TID 0000.0001)                   F
(PID.TID 0000.0001)     ;
(PID.TID 0000.0001) bottomVisc_pCell = /* Partial-cell in bottom Visc. BC */
(PID.TID 0000.0001)                   F
(PID.TID 0000.0001)     ;
(PID.TID 0000.0001) bottomDragLinear = /* linear bottom-drag coefficient ( m/s ) */
(PID.TID 0000.0001)                 0.000000000000000E+00
(PID.TID 0000.0001)     ;
(PID.TID 0000.0001) bottomDragQuadratic = /* quadratic bottom-drag coefficient (-) */
(PID.TID 0000.0001)                 2.500000000000000E-03
(PID.TID 0000.0001)     ;
(PID.TID 0000.0001) selectBotDragQuadr = /* select quadratic bottom drag options */
(PID.TID 0000.0001)                       0
(PID.TID 0000.0001)     ;
(PID.TID 0000.0001) diffKhT =   /* Laplacian diffusion of heat laterally ( m^2/s ) */
(PID.TID 0000.0001)                 1.000000000000000E+02
(PID.TID 0000.0001)     ;
(PID.TID 0000.0001) diffK4T =   /* Biharmonic diffusion of heat laterally ( m^4/s ) */
(PID.TID 0000.0001)                 0.000000000000000E+00
(PID.TID 0000.0001)     ;
(PID.TID 0000.0001) diffKhS =   /* Laplacian diffusion of salt laterally ( m^2/s ) */
(PID.TID 0000.0001)                 1.000000000000000E+02
(PID.TID 0000.0001)     ;
(PID.TID 0000.0001) diffK4S =   /* Biharmonic diffusion of salt laterally ( m^4/s ) */
(PID.TID 0000.0001)                 0.000000000000000E+00
(PID.TID 0000.0001)     ;
(PID.TID 0000.0001) diffKrNrT = /* vertical profile of vertical diffusion of Temp ( m^2/s )*/
(PID.TID 0000.0001)    90 @  5.000000000000000E-05              /* K =  1: 90 */
(PID.TID 0000.0001)     ;
(PID.TID 0000.0001) diffKrNrS = /* vertical profile of vertical diffusion of Salt ( m^2/s )*/
(PID.TID 0000.0001)    90 @  5.000000000000000E-05              /* K =  1: 90 */
(PID.TID 0000.0001)     ;
(PID.TID 0000.0001) diffKrBL79surf = /* Surface diffusion for Bryan and Lewis 79 ( m^2/s ) */
(PID.TID 0000.0001)                 0.000000000000000E+00
(PID.TID 0000.0001)     ;
(PID.TID 0000.0001) diffKrBL79deep = /* Deep diffusion for Bryan and Lewis 1979 ( m^2/s ) */
(PID.TID 0000.0001)                 0.000000000000000E+00
(PID.TID 0000.0001)     ;
(PID.TID 0000.0001) diffKrBL79scl = /* Depth scale for Bryan and Lewis 1979 ( m ) */
(PID.TID 0000.0001)                 2.000000000000000E+02
(PID.TID 0000.0001)     ;
(PID.TID 0000.0001) diffKrBL79Ho = /* Turning depth for Bryan and Lewis 1979 ( m ) */
(PID.TID 0000.0001)                -2.000000000000000E+03
(PID.TID 0000.0001)     ;
(PID.TID 0000.0001) ivdc_kappa = /* Implicit Vertical Diffusivity for Convection ( m^2/s) */
(PID.TID 0000.0001)                 0.000000000000000E+00
(PID.TID 0000.0001)     ;
(PID.TID 0000.0001) hMixCriteria=  /* Criteria for mixed-layer diagnostic */
(PID.TID 0000.0001)                -8.000000000000000E-01
(PID.TID 0000.0001)     ;
(PID.TID 0000.0001) dRhoSmall =  /* Parameter for mixed-layer diagnostic */
(PID.TID 0000.0001)                 1.000000000000000E-06
(PID.TID 0000.0001)     ;
(PID.TID 0000.0001) hMixSmooth=  /* Smoothing parameter for mixed-layer diagnostic */
(PID.TID 0000.0001)                 0.000000000000000E+00
(PID.TID 0000.0001)     ;
(PID.TID 0000.0001) eosType =  /* Type of Equation of State */
(PID.TID 0000.0001)               'JMD95Z'
(PID.TID 0000.0001)     ;
(PID.TID 0000.0001) selectP_inEOS_Zc = /* select pressure to use in EOS (0,1,2,3) */
(PID.TID 0000.0001)                       0
(PID.TID 0000.0001)     0= -g*rhoConst*z ; 1= pRef (from tRef,sRef); 2= Hyd P ; 3= Hyd+NH P
(PID.TID 0000.0001)     ;
(PID.TID 0000.0001) HeatCapacity_Cp =  /* Specific heat capacity ( J/kg/K ) */
(PID.TID 0000.0001)                 3.974000000000000E+03
(PID.TID 0000.0001)     ;
(PID.TID 0000.0001) celsius2K = /* 0 degree Celsius converted to Kelvin ( K ) */
(PID.TID 0000.0001)                 2.731500000000000E+02
(PID.TID 0000.0001)     ;
(PID.TID 0000.0001) rhoConst  = /* Reference density (Boussinesq)  ( kg/m^3 ) */
(PID.TID 0000.0001)                 1.000000000000000E+03
(PID.TID 0000.0001)     ;
(PID.TID 0000.0001) rhoFacC = /* normalized Reference density @ cell-Center (-) */
(PID.TID 0000.0001)    90 @  1.000000000000000E+00              /* K =  1: 90 */
(PID.TID 0000.0001)     ;
(PID.TID 0000.0001) rhoFacF = /* normalized Reference density @ W-Interface (-) */
(PID.TID 0000.0001)    91 @  1.000000000000000E+00              /* K =  1: 91 */
(PID.TID 0000.0001)     ;
(PID.TID 0000.0001) rhoConstFresh = /* Fresh-water reference density ( kg/m^3 ) */
(PID.TID 0000.0001)                 1.000000000000000E+03
(PID.TID 0000.0001)     ;
(PID.TID 0000.0001) gravity =   /* Gravitational acceleration ( m/s^2 ) */
(PID.TID 0000.0001)                 9.810000000000000E+00
(PID.TID 0000.0001)     ;
(PID.TID 0000.0001) gBaro =   /* Barotropic gravity ( m/s^2 ) */
(PID.TID 0000.0001)                 9.810000000000000E+00
(PID.TID 0000.0001)     ;
(PID.TID 0000.0001) gravFacC = /* gravity factor (vs surf.) @ cell-Center (-) */
(PID.TID 0000.0001)    90 @  1.000000000000000E+00              /* K =  1: 90 */
(PID.TID 0000.0001)     ;
(PID.TID 0000.0001) gravFacF = /* gravity factor (vs surf.) @ W-Interface (-) */
(PID.TID 0000.0001)    91 @  1.000000000000000E+00              /* K =  1: 91 */
(PID.TID 0000.0001)     ;
(PID.TID 0000.0001) rotationPeriod =   /* Rotation Period ( s ) */
(PID.TID 0000.0001)                 8.616400000000000E+04
(PID.TID 0000.0001)     ;
(PID.TID 0000.0001) omega =   /* Angular velocity ( rad/s ) */
(PID.TID 0000.0001)                 7.292123516990375E-05
(PID.TID 0000.0001)     ;
(PID.TID 0000.0001) f0 =   /* Reference coriolis parameter ( 1/s ) */
(PID.TID 0000.0001)                 0.000000000000000E+00
(PID.TID 0000.0001)     ;
(PID.TID 0000.0001) beta =   /* Beta ( 1/(m.s) ) */
(PID.TID 0000.0001)                 9.999999999999999E-12
(PID.TID 0000.0001)     ;
(PID.TID 0000.0001) fPrime =   /* Second coriolis parameter ( 1/s ) */
(PID.TID 0000.0001)                 0.000000000000000E+00
(PID.TID 0000.0001)     ;
(PID.TID 0000.0001) rigidLid =   /* Rigid lid on/off flag */
(PID.TID 0000.0001)                   F
(PID.TID 0000.0001)     ;
(PID.TID 0000.0001) implicitFreeSurface =   /* Implicit free surface on/off flag */
(PID.TID 0000.0001)                   T
(PID.TID 0000.0001)     ;
(PID.TID 0000.0001) freeSurfFac =   /* Implicit free surface factor */
(PID.TID 0000.0001)                 1.000000000000000E+00
(PID.TID 0000.0001)     ;
(PID.TID 0000.0001) implicSurfPress =  /* Surface Pressure implicit factor (0-1)*/
(PID.TID 0000.0001)                 1.000000000000000E+00
(PID.TID 0000.0001)     ;
(PID.TID 0000.0001) implicDiv2DFlow =  /* Barot. Flow Div. implicit factor (0-1)*/
(PID.TID 0000.0001)                 1.000000000000000E+00
(PID.TID 0000.0001)     ;
(PID.TID 0000.0001) uniformLin_PhiSurf = /* use uniform Bo_surf on/off flag*/
(PID.TID 0000.0001)                   T
(PID.TID 0000.0001)     ;
(PID.TID 0000.0001) uniformFreeSurfLev = /* free-surface level-index is uniform */
(PID.TID 0000.0001)                   F
(PID.TID 0000.0001)     ;
(PID.TID 0000.0001) hFacMin =   /* minimum partial cell factor (hFac) */
(PID.TID 0000.0001)                 2.000000000000000E-01
(PID.TID 0000.0001)     ;
(PID.TID 0000.0001) hFacMinDr = /* minimum partial cell thickness ( m) */
(PID.TID 0000.0001)                 0.000000000000000E+00
(PID.TID 0000.0001)     ;
(PID.TID 0000.0001) exactConserv =  /* Exact Volume Conservation on/off flag*/
(PID.TID 0000.0001)                   T
(PID.TID 0000.0001)     ;
(PID.TID 0000.0001) linFSConserveTr = /* Tracer correction for Lin Free Surface on/off flag*/
(PID.TID 0000.0001)                   F
(PID.TID 0000.0001)     ;
(PID.TID 0000.0001) nonlinFreeSurf = /* Non-linear Free Surf. options (-1,0,1,2,3)*/
(PID.TID 0000.0001)                       4
(PID.TID 0000.0001)      -1,0= Off ; 1,2,3= On, 2=+rescale gU,gV, 3=+update cg2d solv.
(PID.TID 0000.0001)     ;
(PID.TID 0000.0001) hFacInf =   /* lower threshold for hFac (nonlinFreeSurf only)*/
(PID.TID 0000.0001)                 2.000000000000000E-01
(PID.TID 0000.0001)     ;
(PID.TID 0000.0001) hFacSup =   /* upper threshold for hFac (nonlinFreeSurf only)*/
(PID.TID 0000.0001)                 2.000000000000000E+00
(PID.TID 0000.0001)     ;
(PID.TID 0000.0001) select_rStar = /* r* Vertical coord. options (=0 r coord.; >0 uses r*)*/
(PID.TID 0000.0001)                       0
(PID.TID 0000.0001)     ;
(PID.TID 0000.0001) useRealFreshWaterFlux = /* Real Fresh Water Flux on/off flag*/
(PID.TID 0000.0001)                   T
(PID.TID 0000.0001)     ;
(PID.TID 0000.0001) temp_EvPrRn = /* Temp. of Evap/Prec/R (UNSET=use local T)(oC)*/
(PID.TID 0000.0001)                 1.234567000000000E+05
(PID.TID 0000.0001)     ;
(PID.TID 0000.0001) salt_EvPrRn = /* Salin. of Evap/Prec/R (UNSET=use local S)(psu)*/
(PID.TID 0000.0001)                 0.000000000000000E+00
(PID.TID 0000.0001)     ;
(PID.TID 0000.0001) selectAddFluid = /* option for mass source/sink of fluid (=0: off) */
(PID.TID 0000.0001)                       0
(PID.TID 0000.0001)     ;
(PID.TID 0000.0001) temp_addMass = /* Temp. of addMass array (UNSET=use local T)(oC)*/
(PID.TID 0000.0001)                 1.234567000000000E+05
(PID.TID 0000.0001)     ;
(PID.TID 0000.0001) salt_addMass = /* Salin. of addMass array (UNSET=use local S)(psu)*/
(PID.TID 0000.0001)                 0.000000000000000E+00
(PID.TID 0000.0001)     ;
(PID.TID 0000.0001) use3Dsolver = /* use 3-D pressure solver on/off flag */
(PID.TID 0000.0001)                   F
(PID.TID 0000.0001)     ;
(PID.TID 0000.0001) nonHydrostatic =  /* Non-Hydrostatic on/off flag */
(PID.TID 0000.0001)                   F
(PID.TID 0000.0001)     ;
(PID.TID 0000.0001) nh_Am2 = /* Non-Hydrostatic terms scaling factor */
(PID.TID 0000.0001)                 1.000000000000000E+00
(PID.TID 0000.0001)     ;
(PID.TID 0000.0001) implicitNHPress = /* Non-Hyd Pressure implicit factor (0-1)*/
(PID.TID 0000.0001)                 1.000000000000000E+00
(PID.TID 0000.0001)     ;
(PID.TID 0000.0001) selectNHfreeSurf = /* Non-Hyd (free-)Surface option */
(PID.TID 0000.0001)                       0
(PID.TID 0000.0001)     ;
(PID.TID 0000.0001) quasiHydrostatic = /* Quasi-Hydrostatic on/off flag */
(PID.TID 0000.0001)                   F
(PID.TID 0000.0001)     ;
(PID.TID 0000.0001) calc_wVelocity = /* vertical velocity calculation on/off flag */
(PID.TID 0000.0001)                   T
(PID.TID 0000.0001)     ;
(PID.TID 0000.0001) momStepping =  /* Momentum equation on/off flag */
(PID.TID 0000.0001)                   T
(PID.TID 0000.0001)     ;
(PID.TID 0000.0001) vectorInvariantMomentum= /* Vector-Invariant Momentum on/off */
(PID.TID 0000.0001)                   T
(PID.TID 0000.0001)     ;
(PID.TID 0000.0001) momAdvection =  /* Momentum advection on/off flag */
(PID.TID 0000.0001)                   T
(PID.TID 0000.0001)     ;
(PID.TID 0000.0001) momViscosity =  /* Momentum viscosity on/off flag */
(PID.TID 0000.0001)                   T
(PID.TID 0000.0001)     ;
(PID.TID 0000.0001) momImplVertAdv= /* Momentum implicit vert. advection on/off*/
(PID.TID 0000.0001)                   F
(PID.TID 0000.0001)     ;
(PID.TID 0000.0001) implicitViscosity = /* Implicit viscosity on/off flag */
(PID.TID 0000.0001)                   T
(PID.TID 0000.0001)     ;
(PID.TID 0000.0001) selectImplicitDrag= /* Implicit bot Drag options (0,1,2)*/
(PID.TID 0000.0001)                       0
(PID.TID 0000.0001)     0= Expl. ; 1= Impl. on provis. Vel ; 2= Fully Impl (with surf.P)
(PID.TID 0000.0001)     ;
(PID.TID 0000.0001) metricTerms =  /* metric-Terms on/off flag */
(PID.TID 0000.0001)                   T
(PID.TID 0000.0001)     ;
(PID.TID 0000.0001) useNHMTerms = /* Non-Hydrostatic Metric-Terms on/off */
(PID.TID 0000.0001)                   F
(PID.TID 0000.0001)     ;
(PID.TID 0000.0001) selectCoriMap = /* Coriolis Map options (0,1,2,3)*/
(PID.TID 0000.0001)                       0
(PID.TID 0000.0001)     0= f-Plane ; 1= Beta-Plane ; 2= Spherical ; 3= read from file
(PID.TID 0000.0001)     ;
(PID.TID 0000.0001) use3dCoriolis = /* 3-D Coriolis on/off flag */
(PID.TID 0000.0001)                   F
(PID.TID 0000.0001)     ;
(PID.TID 0000.0001) useCoriolis =  /* Coriolis on/off flag */
(PID.TID 0000.0001)                   F
(PID.TID 0000.0001)     ;
(PID.TID 0000.0001) useCDscheme =  /* CD scheme on/off flag */
(PID.TID 0000.0001)                   F
(PID.TID 0000.0001)     ;
(PID.TID 0000.0001) selectCoriScheme= /* Scheme selector for Coriolis-Term */
(PID.TID 0000.0001)                       0
(PID.TID 0000.0001)    = 0 : original discretization (simple averaging, no hFac)
(PID.TID 0000.0001)    = 1 : Wet-point averaging (Jamar & Ozer 1986)
(PID.TID 0000.0001)    = 2 : hFac weighted average (Angular Mom. conserving)
(PID.TID 0000.0001)    = 3 : energy conserving scheme using hFac weighted average
(PID.TID 0000.0001)     ;
(PID.TID 0000.0001) useAbsVorticity= /* V.I Works with f+zeta in Coriolis */
(PID.TID 0000.0001)                   F
(PID.TID 0000.0001)     ;
(PID.TID 0000.0001) selectVortScheme= /* V.I Scheme selector for Vorticity-Term */
(PID.TID 0000.0001)                       1
(PID.TID 0000.0001)    = 0 : enstrophy (Shallow-Water Eq.) conserving scheme by Sadourny, JAS 75
(PID.TID 0000.0001)    = 1 : same as 0 with modified hFac
(PID.TID 0000.0001)    = 2 : energy conserving scheme (used by Sadourny in JAS 75 paper)
(PID.TID 0000.0001)    = 3 : energy (general) and enstrophy (2D, nonDiv.) conserving scheme
(PID.TID 0000.0001)          from Sadourny (Burridge & Haseler, ECMWF Rep.4, 1977)
(PID.TID 0000.0001)     ;
(PID.TID 0000.0001) useJamartMomAdv= /* V.I Non-linear terms Jamart flag */
(PID.TID 0000.0001)                   F
(PID.TID 0000.0001)     ;
(PID.TID 0000.0001) upwindVorticity= /* V.I Upwind bias vorticity flag */
(PID.TID 0000.0001)                   F
(PID.TID 0000.0001)     ;
(PID.TID 0000.0001) highOrderVorticity= /* V.I High order vort. advect. flag */
(PID.TID 0000.0001)                   F
(PID.TID 0000.0001)     ;
(PID.TID 0000.0001) upwindShear= /* V.I Upwind vertical Shear advection flag */
(PID.TID 0000.0001)                   F
(PID.TID 0000.0001)     ;
(PID.TID 0000.0001) selectKEscheme= /* V.I Kinetic Energy scheme selector */
(PID.TID 0000.0001)                       0
(PID.TID 0000.0001)     ;
(PID.TID 0000.0001) momForcing =  /* Momentum forcing on/off flag */
(PID.TID 0000.0001)                   T
(PID.TID 0000.0001)     ;
(PID.TID 0000.0001) momTidalForcing = /* Momentum Tidal forcing on/off flag */
(PID.TID 0000.0001)                   T
(PID.TID 0000.0001)     ;
(PID.TID 0000.0001) momPressureForcing =  /* Momentum pressure term on/off flag */
(PID.TID 0000.0001)                   T
(PID.TID 0000.0001)     ;
(PID.TID 0000.0001) implicitIntGravWave= /* Implicit Internal Gravity Wave flag */
(PID.TID 0000.0001)                   F
(PID.TID 0000.0001)     ;
(PID.TID 0000.0001) staggerTimeStep =    /* Stagger time stepping on/off flag */
(PID.TID 0000.0001)                   T
(PID.TID 0000.0001)     ;
(PID.TID 0000.0001) doResetHFactors = /* reset thickness factors @ each time-step */
(PID.TID 0000.0001)                   F
(PID.TID 0000.0001)     ;
(PID.TID 0000.0001) multiDimAdvection =  /* enable/disable Multi-Dim Advection */
(PID.TID 0000.0001)                   T
(PID.TID 0000.0001)     ;
(PID.TID 0000.0001) useMultiDimAdvec =   /* Multi-Dim Advection is/is-not used */
(PID.TID 0000.0001)                   T
(PID.TID 0000.0001)     ;
(PID.TID 0000.0001) implicitDiffusion = /* Implicit Diffusion on/off flag */
(PID.TID 0000.0001)                   T
(PID.TID 0000.0001)     ;
(PID.TID 0000.0001) tempStepping =  /* Temperature equation on/off flag */
(PID.TID 0000.0001)                   T
(PID.TID 0000.0001)     ;
(PID.TID 0000.0001) tempAdvection = /* Temperature advection on/off flag */
(PID.TID 0000.0001)                   T
(PID.TID 0000.0001)     ;
(PID.TID 0000.0001) tempImplVertAdv = /* Temp. implicit vert. advection on/off */
(PID.TID 0000.0001)                   T
(PID.TID 0000.0001)     ;
(PID.TID 0000.0001) tempForcing  =  /* Temperature forcing on/off flag */
(PID.TID 0000.0001)                   T
(PID.TID 0000.0001)     ;
(PID.TID 0000.0001) doThetaClimRelax = /* apply SST relaxation on/off flag */
(PID.TID 0000.0001)                   F
(PID.TID 0000.0001)     ;
(PID.TID 0000.0001) tempIsActiveTr = /* Temp. is a dynamically Active Tracer */
(PID.TID 0000.0001)                   T
(PID.TID 0000.0001)     ;
(PID.TID 0000.0001) saltStepping =  /* Salinity equation on/off flag */
(PID.TID 0000.0001)                   T
(PID.TID 0000.0001)     ;
(PID.TID 0000.0001) saltAdvection = /* Salinity advection on/off flag */
(PID.TID 0000.0001)                   T
(PID.TID 0000.0001)     ;
(PID.TID 0000.0001) saltImplVertAdv = /* Sali. implicit vert. advection on/off */
(PID.TID 0000.0001)                   T
(PID.TID 0000.0001)     ;
(PID.TID 0000.0001) saltForcing  =  /* Salinity forcing on/off flag */
(PID.TID 0000.0001)                   T
(PID.TID 0000.0001)     ;
(PID.TID 0000.0001) doSaltClimRelax = /* apply SSS relaxation on/off flag */
(PID.TID 0000.0001)                   F
(PID.TID 0000.0001)     ;
(PID.TID 0000.0001) saltIsActiveTr = /* Salt  is a dynamically Active Tracer */
(PID.TID 0000.0001)                   T
(PID.TID 0000.0001)     ;
(PID.TID 0000.0001)  readBinaryPrec = /* Precision used for reading binary files */
(PID.TID 0000.0001)                      64
(PID.TID 0000.0001)     ;
(PID.TID 0000.0001) writeBinaryPrec = /* Precision used for writing binary files */
(PID.TID 0000.0001)                      32
(PID.TID 0000.0001)     ;
(PID.TID 0000.0001)  rwSuffixType =   /* select format of mds file suffix */
(PID.TID 0000.0001)                       0
(PID.TID 0000.0001)    = 0 : myIter (I10.10) ;   = 1 : 100*myTime (100th sec) ;
(PID.TID 0000.0001)    = 2 : myTime (seconds);   = 3 : myTime/360 (10th of hr);
(PID.TID 0000.0001)    = 4 : myTime/3600 (hours)
(PID.TID 0000.0001)     ;
(PID.TID 0000.0001)  globalFiles = /* write "global" (=not per tile) files */
(PID.TID 0000.0001)                   T
(PID.TID 0000.0001)     ;
(PID.TID 0000.0001)  useSingleCpuIO = /* only master MPI process does I/O */
(PID.TID 0000.0001)                   T
(PID.TID 0000.0001)     ;
(PID.TID 0000.0001)  useSingleCpuInput = /* only master process reads input */
(PID.TID 0000.0001)                   T
(PID.TID 0000.0001)     ;
(PID.TID 0000.0001) /* debLev[*]  : level of debug & auxiliary message printing */
(PID.TID 0000.0001) debLevZero =  0 ; /* level of disabled aux. msg printing */
(PID.TID 0000.0001)    debLevA =  1 ; /* level of minimum  aux. msg printing */
(PID.TID 0000.0001)    debLevB =  2 ; /* level of low aux. print (report read-file opening)*/
(PID.TID 0000.0001)    debLevC =  3 ; /* level of moderate debug prt (most pkgs debug msg) */
(PID.TID 0000.0001)    debLevD =  4 ; /* level of enhanced debug prt (add DEBUG_STATS prt) */
(PID.TID 0000.0001)    debLevE =  5 ; /* level of extensive debug printing */
(PID.TID 0000.0001) debugLevel =  /* select debug printing level */
(PID.TID 0000.0001)                       1
(PID.TID 0000.0001)     ;
(PID.TID 0000.0001)  plotLevel =  /* select PLOT_FIELD printing level */
(PID.TID 0000.0001)                       1
(PID.TID 0000.0001)     ;
(PID.TID 0000.0001) //
(PID.TID 0000.0001) // Elliptic solver(s) paramters ( PARM02 in namelist )
(PID.TID 0000.0001) //
(PID.TID 0000.0001) cg2dMaxIters =   /* Upper limit on 2d con. grad iterations  */
(PID.TID 0000.0001)                     300
(PID.TID 0000.0001)     ;
(PID.TID 0000.0001) cg2dChkResFreq =   /* 2d con. grad convergence test frequency */
(PID.TID 0000.0001)                       1
(PID.TID 0000.0001)     ;
(PID.TID 0000.0001) cg2dUseMinResSol= /* use cg2d last-iter(=0) / min-resid.(=1) solution */
(PID.TID 0000.0001)                       0
(PID.TID 0000.0001)     ;
(PID.TID 0000.0001) cg2dTargetResidual =   /* 2d con. grad target residual  */
(PID.TID 0000.0001)                 9.999999999999999E-12
(PID.TID 0000.0001)     ;
(PID.TID 0000.0001) cg2dTargetResWunit =   /* CG2d target residual [W units] */
(PID.TID 0000.0001)                -1.000000000000000E+00
(PID.TID 0000.0001)     ;
(PID.TID 0000.0001) cg2dPreCondFreq =   /* Freq. for updating cg2d preconditioner */
(PID.TID 0000.0001)                       1
(PID.TID 0000.0001)     ;
(PID.TID 0000.0001) useSRCGSolver =  /* use single reduction CG solver(s) */
(PID.TID 0000.0001)                   F
(PID.TID 0000.0001)     ;
(PID.TID 0000.0001) printResidualFreq = /* Freq. for printing CG residual */
(PID.TID 0000.0001)                       0
(PID.TID 0000.0001)     ;
(PID.TID 0000.0001) //
(PID.TID 0000.0001) // Time stepping paramters ( PARM03 in namelist )
(PID.TID 0000.0001) //
(PID.TID 0000.0001) deltaTMom =   /* Momentum equation timestep ( s ) */
(PID.TID 0000.0001)                 3.000000000000000E+02
(PID.TID 0000.0001)     ;
(PID.TID 0000.0001) deltaTFreeSurf = /* FreeSurface equation timestep ( s ) */
(PID.TID 0000.0001)                 3.000000000000000E+02
(PID.TID 0000.0001)     ;
(PID.TID 0000.0001) dTtracerLev =  /* Tracer equation timestep ( s ) */
(PID.TID 0000.0001)    90 @  3.000000000000000E+02              /* K =  1: 90 */
(PID.TID 0000.0001)     ;
(PID.TID 0000.0001) deltaTClock  =   /* Model clock timestep ( s ) */
(PID.TID 0000.0001)                 3.000000000000000E+02
(PID.TID 0000.0001)     ;
(PID.TID 0000.0001) cAdjFreq =   /* Convective adjustment interval ( s ) */
(PID.TID 0000.0001)                 3.000000000000000E+02
(PID.TID 0000.0001)     ;
(PID.TID 0000.0001) momForcingOutAB = /* =1: take Momentum Forcing out of Adams-Bash. stepping */
(PID.TID 0000.0001)                       1
(PID.TID 0000.0001)     ;
(PID.TID 0000.0001) tracForcingOutAB = /* =1: take T,S,pTr Forcing out of Adams-Bash. stepping */
(PID.TID 0000.0001)                       1
(PID.TID 0000.0001)     ;
(PID.TID 0000.0001) momDissip_In_AB = /* put Dissipation Tendency in Adams-Bash. stepping */
(PID.TID 0000.0001)                   T
(PID.TID 0000.0001)     ;
(PID.TID 0000.0001) doAB_onGtGs = /* apply AB on Tendencies (rather than on T,S)*/
(PID.TID 0000.0001)                   T
(PID.TID 0000.0001)     ;
(PID.TID 0000.0001) abEps =   /* Adams-Bashforth-2 stabilizing weight */
(PID.TID 0000.0001)                 1.000000000000000E-01
(PID.TID 0000.0001)     ;
(PID.TID 0000.0001) applyExchUV_early = /* Apply EXCH to U,V earlier in time-step */
(PID.TID 0000.0001)                   F
(PID.TID 0000.0001)     ;
(PID.TID 0000.0001) pickupStrictlyMatch= /* stop if pickup do not strictly match */
(PID.TID 0000.0001)                   T
(PID.TID 0000.0001)     ;
(PID.TID 0000.0001) nIter0   =   /* Run starting timestep number */
(PID.TID 0000.0001)                   11395
(PID.TID 0000.0001)     ;
(PID.TID 0000.0001) nTimeSteps = /* Number of timesteps */
(PID.TID 0000.0001)                      20
(PID.TID 0000.0001)     ;
(PID.TID 0000.0001) nEndIter =   /* Run ending timestep number */
(PID.TID 0000.0001)                   11415
(PID.TID 0000.0001)     ;
(PID.TID 0000.0001) baseTime =   /* Model base time ( s ) */
(PID.TID 0000.0001)                 0.000000000000000E+00
(PID.TID 0000.0001)     ;
(PID.TID 0000.0001) startTime =  /* Run start time ( s ) */
(PID.TID 0000.0001)                 3.418500000000000E+06
(PID.TID 0000.0001)     ;
(PID.TID 0000.0001) endTime  =   /* Integration ending time ( s ) */
(PID.TID 0000.0001)                 3.424500000000000E+06
(PID.TID 0000.0001)     ;
(PID.TID 0000.0001) pChkPtFreq = /* Permanent restart/pickup file interval ( s ) */
(PID.TID 0000.0001)                 3.110400000000000E+07
(PID.TID 0000.0001)     ;
(PID.TID 0000.0001) chkPtFreq  = /* Rolling restart/pickup file interval ( s ) */
(PID.TID 0000.0001)                 7.776000000000000E+06
(PID.TID 0000.0001)     ;
(PID.TID 0000.0001) pickup_write_mdsio =   /* Model IO flag. */
(PID.TID 0000.0001)                   T
(PID.TID 0000.0001)     ;
(PID.TID 0000.0001) pickup_read_mdsio =   /* Model IO flag. */
(PID.TID 0000.0001)                   T
(PID.TID 0000.0001)     ;
(PID.TID 0000.0001) writePickupAtEnd =   /* Model IO flag. */
(PID.TID 0000.0001)                   T
(PID.TID 0000.0001)     ;
(PID.TID 0000.0001) dumpFreq =   /* Model state write out interval ( s ). */
(PID.TID 0000.0001)                 3.000000000000000E+03
(PID.TID 0000.0001)     ;
(PID.TID 0000.0001) dumpInitAndLast= /* write out Initial & Last iter. model state */
(PID.TID 0000.0001)                   T
(PID.TID 0000.0001)     ;
(PID.TID 0000.0001) snapshot_mdsio =   /* Model IO flag. */
(PID.TID 0000.0001)                   T
(PID.TID 0000.0001)     ;
(PID.TID 0000.0001) monitorFreq =   /* Monitor output interval ( s ). */
(PID.TID 0000.0001)                 1.000000000000000E+00
(PID.TID 0000.0001)     ;
(PID.TID 0000.0001) monitorSelect = /* select group of variables to monitor */
(PID.TID 0000.0001)                       1
(PID.TID 0000.0001)     ;
(PID.TID 0000.0001) monitor_stdio =   /* Model IO flag. */
(PID.TID 0000.0001)                   T
(PID.TID 0000.0001)     ;
(PID.TID 0000.0001) externForcingPeriod =   /* forcing period (s) */
(PID.TID 0000.0001)                 0.000000000000000E+00
(PID.TID 0000.0001)     ;
(PID.TID 0000.0001) externForcingCycle =   /* period of the cyle (s). */
(PID.TID 0000.0001)                 0.000000000000000E+00
(PID.TID 0000.0001)     ;
(PID.TID 0000.0001) tauThetaClimRelax =   /* relaxation time scale (s) */
(PID.TID 0000.0001)                 0.000000000000000E+00
(PID.TID 0000.0001)     ;
(PID.TID 0000.0001) tauSaltClimRelax =   /* relaxation time scale (s) */
(PID.TID 0000.0001)                 0.000000000000000E+00
(PID.TID 0000.0001)     ;
(PID.TID 0000.0001) latBandClimRelax =   /* max. Lat. where relaxation */
(PID.TID 0000.0001)                 1.800000000000000E+02
(PID.TID 0000.0001)     ;
(PID.TID 0000.0001) //
(PID.TID 0000.0001) // Gridding paramters ( PARM04 in namelist )
(PID.TID 0000.0001) //
(PID.TID 0000.0001) usingCartesianGrid = /* Cartesian coordinates flag ( True/False ) */
(PID.TID 0000.0001)                   F
(PID.TID 0000.0001)     ;
(PID.TID 0000.0001) usingCylindricalGrid = /* Cylindrical coordinates flag ( True/False ) */
(PID.TID 0000.0001)                   F
(PID.TID 0000.0001)     ;
(PID.TID 0000.0001) usingSphericalPolarGrid = /* Spherical coordinates flag ( True/False ) */
(PID.TID 0000.0001)                   T
(PID.TID 0000.0001)     ;
(PID.TID 0000.0001) usingCurvilinearGrid = /* Curvilinear coordinates flag ( True/False ) */
(PID.TID 0000.0001)                   F
(PID.TID 0000.0001)     ;
(PID.TID 0000.0001) useMin4hFacEdges = /* set hFacW,S as minimum of adjacent hFacC factor */
(PID.TID 0000.0001)                   T
(PID.TID 0000.0001)     ;
(PID.TID 0000.0001) interViscAr_pCell = /* account for partial-cell in interior vert. viscosity */
(PID.TID 0000.0001)                   F
(PID.TID 0000.0001)     ;
(PID.TID 0000.0001) interDiffKr_pCell = /* account for partial-cell in interior vert. diffusion */
(PID.TID 0000.0001)                   F
(PID.TID 0000.0001)     ;
(PID.TID 0000.0001) pCellMix_select = /* option to enhance mixing near surface & bottom */
(PID.TID 0000.0001)                       0
(PID.TID 0000.0001)     ;
(PID.TID 0000.0001) selectSigmaCoord = /* Hybrid-Sigma Vert. Coordinate option */
(PID.TID 0000.0001)                       0
(PID.TID 0000.0001)     ;
(PID.TID 0000.0001) rSigmaBnd = /* r/sigma transition ( units of r ==  m ) */
(PID.TID 0000.0001)                 1.234567000000000E+05
(PID.TID 0000.0001)     ;
(PID.TID 0000.0001) rkSign =   /* index orientation relative to vertical coordinate */
(PID.TID 0000.0001)                -1.000000000000000E+00
(PID.TID 0000.0001)     ;
(PID.TID 0000.0001) gravitySign = /* gravity orientation relative to vertical coordinate */
(PID.TID 0000.0001)                -1.000000000000000E+00
(PID.TID 0000.0001)     ;
(PID.TID 0000.0001) seaLev_Z =  /* reference height of sea-level [m] */
(PID.TID 0000.0001)                 0.000000000000000E+00
(PID.TID 0000.0001)     ;
(PID.TID 0000.0001) top_Pres =  /* reference pressure at the top [Pa] */
(PID.TID 0000.0001)                 0.000000000000000E+00
(PID.TID 0000.0001)     ;
(PID.TID 0000.0001) mass2rUnit = /* convert mass per unit area [kg/m2] to r-units [m] */
(PID.TID 0000.0001)                 1.000000000000000E-03
(PID.TID 0000.0001)     ;
(PID.TID 0000.0001) rUnit2mass = /* convert r-units [m] to mass per unit area [kg/m2] */
(PID.TID 0000.0001)                 1.000000000000000E+03
(PID.TID 0000.0001)     ;
(PID.TID 0000.0001) drC =   /* C spacing ( units of r ) */
(PID.TID 0000.0001)                 5.000000000000000E+00,      /* K =  1 */
(PID.TID 0000.0001)    89 @  1.000000000000000E+01,             /* K =  2: 90 */
(PID.TID 0000.0001)                 5.000000000000000E+00       /* K = 91 */
(PID.TID 0000.0001)     ;
(PID.TID 0000.0001) drF =   /* W spacing ( units of r ) */
(PID.TID 0000.0001)    90 @  1.000000000000000E+01              /* K =  1: 90 */
(PID.TID 0000.0001)     ;
(PID.TID 0000.0001) delX = /* U spacing ( m - cartesian, degrees - spherical ) */
(PID.TID 0000.0001)     3 @  1.250000000000000E-01              /* I =  1:  3 */
(PID.TID 0000.0001)     ;
(PID.TID 0000.0001) delY = /* V spacing ( m - cartesian, degrees - spherical ) */
(PID.TID 0000.0001)   200 @  7.812500000000000E-03              /* J =  1:200 */
(PID.TID 0000.0001)     ;
(PID.TID 0000.0001) xgOrigin = /* X-axis origin of West  edge (cartesian: m, lat-lon: deg) */
(PID.TID 0000.0001)                -1.055000000000000E+02
(PID.TID 0000.0001)     ;
(PID.TID 0000.0001) ygOrigin = /* Y-axis origin of South edge (cartesian: m, lat-lon: deg) */
(PID.TID 0000.0001)                -7.544570000000000E+01
(PID.TID 0000.0001)     ;
(PID.TID 0000.0001) rSphere =  /* Radius ( ignored - cartesian, m - spherical ) */
(PID.TID 0000.0001)                 6.370000000000000E+06
(PID.TID 0000.0001)     ;
(PID.TID 0000.0001) deepAtmosphere = /* Deep/Shallow Atmosphere flag (True/False) */
(PID.TID 0000.0001)                   F
(PID.TID 0000.0001)     ;
(PID.TID 0000.0001) xC =  /* xC(:,1,:,1) : P-point X coord ( deg. or m if cartesian) */
(PID.TID 0000.0001)                -1.054375000000000E+02,      /* I =  1 */
(PID.TID 0000.0001)                -1.053125000000000E+02,      /* I =  2 */
(PID.TID 0000.0001)                -1.051875000000000E+02       /* I =  3 */
(PID.TID 0000.0001)     ;
(PID.TID 0000.0001) yC =  /* yC(1,:,1,:) : P-point Y coord ( deg. or m if cartesian) */
(PID.TID 0000.0001)                -7.544179375000000E+01,      /* J =  1 */
(PID.TID 0000.0001)                -7.543398125000000E+01,      /* J =  2 */
(PID.TID 0000.0001)                -7.542616875000000E+01,      /* J =  3 */
(PID.TID 0000.0001)      . . .
(PID.TID 0000.0001)                -7.507460625000000E+01,      /* J = 48 */
(PID.TID 0000.0001)                -7.506679375000000E+01,      /* J = 49 */
(PID.TID 0000.0001)                -7.505898125000000E+01,      /* J = 50 */
(PID.TID 0000.0001)                -7.505116875000000E+01,      /* J = 51 */
(PID.TID 0000.0001)                -7.504335625000000E+01,      /* J = 52 */
(PID.TID 0000.0001)                -7.503554375000000E+01,      /* J = 53 */
(PID.TID 0000.0001)      . . .
(PID.TID 0000.0001)                -7.468398125000000E+01,      /* J = 98 */
(PID.TID 0000.0001)                -7.467616875000000E+01,      /* J = 99 */
(PID.TID 0000.0001)                -7.466835625000000E+01,      /* J =100 */
(PID.TID 0000.0001)                -7.466054375000000E+01,      /* J =101 */
(PID.TID 0000.0001)                -7.465273125000000E+01,      /* J =102 */
(PID.TID 0000.0001)                -7.464491875000000E+01,      /* J =103 */
(PID.TID 0000.0001)      . . .
(PID.TID 0000.0001)                -7.429335625000000E+01,      /* J =148 */
(PID.TID 0000.0001)                -7.428554375000000E+01,      /* J =149 */
(PID.TID 0000.0001)                -7.427773125000000E+01,      /* J =150 */
(PID.TID 0000.0001)                -7.426991875000000E+01,      /* J =151 */
(PID.TID 0000.0001)                -7.426210625000000E+01,      /* J =152 */
(PID.TID 0000.0001)                -7.425429375000000E+01,      /* J =153 */
(PID.TID 0000.0001)      . . .
(PID.TID 0000.0001)                -7.390273125000000E+01,      /* J =198 */
(PID.TID 0000.0001)                -7.389491875000000E+01,      /* J =199 */
(PID.TID 0000.0001)                -7.388710625000000E+01       /* J =200 */
(PID.TID 0000.0001)     ;
(PID.TID 0000.0001) rcoord = /* P-point R coordinate (  units of r ) */
(PID.TID 0000.0001)                -5.000000000000000E+00,      /* K =  1 */
(PID.TID 0000.0001)                -1.500000000000000E+01,      /* K =  2 */
(PID.TID 0000.0001)                -2.500000000000000E+01,      /* K =  3 */
(PID.TID 0000.0001)                -3.500000000000000E+01,      /* K =  4 */
(PID.TID 0000.0001)                -4.500000000000000E+01,      /* K =  5 */
(PID.TID 0000.0001)                -5.500000000000000E+01,      /* K =  6 */
(PID.TID 0000.0001)                -6.500000000000000E+01,      /* K =  7 */
(PID.TID 0000.0001)                -7.500000000000000E+01,      /* K =  8 */
(PID.TID 0000.0001)                -8.500000000000000E+01,      /* K =  9 */
(PID.TID 0000.0001)                -9.500000000000000E+01,      /* K = 10 */
(PID.TID 0000.0001)                -1.050000000000000E+02,      /* K = 11 */
(PID.TID 0000.0001)                -1.150000000000000E+02,      /* K = 12 */
(PID.TID 0000.0001)                -1.250000000000000E+02,      /* K = 13 */
(PID.TID 0000.0001)                -1.350000000000000E+02,      /* K = 14 */
(PID.TID 0000.0001)                -1.450000000000000E+02,      /* K = 15 */
(PID.TID 0000.0001)                -1.550000000000000E+02,      /* K = 16 */
(PID.TID 0000.0001)                -1.650000000000000E+02,      /* K = 17 */
(PID.TID 0000.0001)                -1.750000000000000E+02,      /* K = 18 */
(PID.TID 0000.0001)                -1.850000000000000E+02,      /* K = 19 */
(PID.TID 0000.0001)                -1.950000000000000E+02,      /* K = 20 */
(PID.TID 0000.0001)                -2.050000000000000E+02,      /* K = 21 */
[...]
(PID.TID 0000.0001) %MON dynstat_wvel_max             =   1.2383420052161E-02
(PID.TID 0000.0001) %MON dynstat_wvel_min             =  -7.7950199037051E-03
(PID.TID 0000.0001) %MON dynstat_wvel_mean            =   3.0019629738478E-05
(PID.TID 0000.0001) %MON dynstat_wvel_sd              =   6.8064699335073E-04
(PID.TID 0000.0001) %MON dynstat_wvel_del2            =   3.9320626172415E-06
(PID.TID 0000.0001) %MON dynstat_theta_max            =   1.9439655070699E+00
(PID.TID 0000.0001) %MON dynstat_theta_min            =  -1.8514291214375E+00
(PID.TID 0000.0001) %MON dynstat_theta_mean           =   2.2638666158526E-02
(PID.TID 0000.0001) %MON dynstat_theta_sd             =   1.2764122192739E+00
(PID.TID 0000.0001) %MON dynstat_theta_del2           =   5.7740864376295E-05
(PID.TID 0000.0001) %MON dynstat_salt_max             =   3.4692816090650E+01
(PID.TID 0000.0001) %MON dynstat_salt_min             =   3.3812122013876E+01
(PID.TID 0000.0001) %MON dynstat_salt_mean            =   3.4431635580191E+01
(PID.TID 0000.0001) %MON dynstat_salt_sd              =   1.8350451906485E-01
(PID.TID 0000.0001) %MON dynstat_salt_del2            =   1.5930704438505E-05
(PID.TID 0000.0001) %MON advcfl_uvel_max              =   5.3734343949475E-13
(PID.TID 0000.0001) %MON advcfl_vvel_max              =   6.8645980890617E-02
(PID.TID 0000.0001) %MON advcfl_wvel_max              =   3.7150260156484E-01
(PID.TID 0000.0001) %MON advcfl_W_hf_max              =   3.7150260156484E-01
(PID.TID 0000.0001) %MON pe_b_mean                    =  -2.8107284635519E-01
(PID.TID 0000.0001) %MON ke_max                       =   1.9737029404979E-02
(PID.TID 0000.0001) %MON ke_mean                      =   1.3480589774119E-03
(PID.TID 0000.0001) %MON ke_vol                       =   1.3174262487747E+12
(PID.TID 0000.0001) // =======================================================
(PID.TID 0000.0001) // End MONITOR dynamic field statistics
(PID.TID 0000.0001) // =======================================================
(PID.TID 0000.0001) // =======================================================
(PID.TID 0000.0001) // Begin OBCS MONITOR field statistics
(PID.TID 0000.0001) // =======================================================
(PID.TID 0000.0001) %MON obc_N_vVel_max               =   2.5000000000000E-02
(PID.TID 0000.0001) %MON obc_N_vVel_min               =  -2.5000000000000E-02
(PID.TID 0000.0001) %MON obc_N_vVel_mean              =   1.0701309254946E-18
(PID.TID 0000.0001) %MON obc_N_vVel_sd                =   1.4595032760272E-02
(PID.TID 0000.0001) %MON obc_N_vVel_Int               =   1.1141310096718E-11
(PID.TID 0000.0001) // =======================================================
(PID.TID 0000.0001) // End OBCS MONITOR field statistics
(PID.TID 0000.0001) // =======================================================
(PID.TID 0000.0001) streamice solo_time_step: nIter0000011414 0.11E+00seconds
 time_step_loc   9.51293759512937678E-006
(PID.TID 0000.0001) END STREAMICE_ADVECT_THICKNESS
 cg2d: Sum(rhs),rhsMax =   1.23254642352996E-01  5.71273188904274E+01
(PID.TID 0000.0001)      cg2d_init_res =   6.76188443123928E-05
(PID.TID 0000.0001)      cg2d_iters(min,last) =      -1     115
(PID.TID 0000.0001)      cg2d_last_res =   5.53261816131113E-12
(PID.TID 0000.0001) CALLING FILL DIAGNOSTICS
(PID.TID 0000.0001) // =======================================================
(PID.TID 0000.0001) // Begin MONITOR dynamic field statistics
(PID.TID 0000.0001) // =======================================================
(PID.TID 0000.0001) %MON time_tsnumber                =                 11415
(PID.TID 0000.0001) %MON time_secondsf                =   3.4245000000000E+06
(PID.TID 0000.0001) %MON dynstat_eta_max              =   2.4733374223675E+00
(PID.TID 0000.0001) %MON dynstat_eta_min              =  -7.4963376513681E+00
(PID.TID 0000.0001) %MON dynstat_eta_mean             =  -1.3346582376267E+00
(PID.TID 0000.0001) %MON dynstat_eta_sd               =   2.4328325778208E+00
(PID.TID 0000.0001) %MON dynstat_eta_del2             =   1.8281083994675E-01
(PID.TID 0000.0001) %MON dynstat_uvel_max             =   6.7612827182105E-12
(PID.TID 0000.0001) %MON dynstat_uvel_min             =  -6.7876498173539E-12
(PID.TID 0000.0001) %MON dynstat_uvel_mean            =  -8.8851610621249E-26
(PID.TID 0000.0001) %MON dynstat_uvel_sd              =   9.4805554787599E-13
(PID.TID 0000.0001) %MON dynstat_uvel_del2            =   2.3121595811633E-14
(PID.TID 0000.0001) %MON dynstat_vvel_max             =   1.9875136825384E-01
(PID.TID 0000.0001) %MON dynstat_vvel_min             =  -1.1041142249365E-01
(PID.TID 0000.0001) %MON dynstat_vvel_mean            =   5.1820397543153E-07
(PID.TID 0000.0001) %MON dynstat_vvel_sd              =   5.1927085111458E-02
(PID.TID 0000.0001) %MON dynstat_vvel_del2            =   1.5257651450328E-05
(PID.TID 0000.0001) %MON dynstat_wvel_max             =   1.2383149946627E-02
(PID.TID 0000.0001) %MON dynstat_wvel_min             =  -7.7962809806099E-03
(PID.TID 0000.0001) %MON dynstat_wvel_mean            =   3.0019753944659E-05
(PID.TID 0000.0001) %MON dynstat_wvel_sd              =   6.8066928881352E-04
(PID.TID 0000.0001) %MON dynstat_wvel_del2            =   3.9323122555550E-06
(PID.TID 0000.0001) %MON dynstat_theta_max            =   1.9439662282705E+00
(PID.TID 0000.0001) %MON dynstat_theta_min            =  -1.8514214378123E+00
(PID.TID 0000.0001) %MON dynstat_theta_mean           =   2.2650177833013E-02
(PID.TID 0000.0001) %MON dynstat_theta_sd             =   1.2764091794329E+00
(PID.TID 0000.0001) %MON dynstat_theta_del2           =   5.7740319828392E-05
(PID.TID 0000.0001) %MON dynstat_salt_max             =   3.4692816183112E+01
(PID.TID 0000.0001) %MON dynstat_salt_min             =   3.3812122490027E+01
(PID.TID 0000.0001) %MON dynstat_salt_mean            =   3.4431636298260E+01
(PID.TID 0000.0001) %MON dynstat_salt_sd              =   1.8350513469846E-01
(PID.TID 0000.0001) %MON dynstat_salt_del2            =   1.5928415775399E-05
(PID.TID 0000.0001) %MON advcfl_uvel_max              =   5.3683672567253E-13
(PID.TID 0000.0001) %MON advcfl_vvel_max              =   6.8647472467566E-02
(PID.TID 0000.0001) %MON advcfl_wvel_max              =   3.7149449839880E-01
(PID.TID 0000.0001) %MON advcfl_W_hf_max              =   3.7149449839880E-01
(PID.TID 0000.0001) %MON pe_b_mean                    =  -2.8105572674072E-01
(PID.TID 0000.0001) %MON ke_max                       =   1.9737919458288E-02
(PID.TID 0000.0001) %MON ke_mean                      =   1.3481775496621E-03
(PID.TID 0000.0001) %MON ke_vol                       =   1.3174264066611E+12
(PID.TID 0000.0001) // =======================================================
(PID.TID 0000.0001) // End MONITOR dynamic field statistics
(PID.TID 0000.0001) // =======================================================
(PID.TID 0000.0001) // =======================================================
(PID.TID 0000.0001) // Begin OBCS MONITOR field statistics
(PID.TID 0000.0001) // =======================================================
(PID.TID 0000.0001) %MON obc_N_vVel_max               =   2.5000000000000E-02
(PID.TID 0000.0001) %MON obc_N_vVel_min               =  -2.5000000000000E-02
(PID.TID 0000.0001) %MON obc_N_vVel_mean              =   1.0701309254946E-18
(PID.TID 0000.0001) %MON obc_N_vVel_sd                =   1.4595032760272E-02
(PID.TID 0000.0001) %MON obc_N_vVel_Int               =   1.1141310096718E-11
(PID.TID 0000.0001) // =======================================================
(PID.TID 0000.0001) // End OBCS MONITOR field statistics
(PID.TID 0000.0001) // =======================================================
(PID.TID 0000.0001) %CHECKPOINT     11415 ckptA
(PID.TID 0000.0001)   Seconds in section "ALL                    [THE_MODEL_MAIN]":
(PID.TID 0000.0001)           User time:   31.843159172567539
(PID.TID 0000.0001)         System time:  0.12997999275103211
(PID.TID 0000.0001)     Wall clock time:   32.135342121124268
(PID.TID 0000.0001)          No. starts:           1
(PID.TID 0000.0001)           No. stops:           1
(PID.TID 0000.0001)   Seconds in section "INITIALISE_FIXED       [THE_MODEL_MAIN]":
(PID.TID 0000.0001)           User time:  0.16997500124853104
(PID.TID 0000.0001)         System time:  9.99799976125359535E-003
(PID.TID 0000.0001)     Wall clock time:  0.20923399925231934
(PID.TID 0000.0001)          No. starts:           1
(PID.TID 0000.0001)           No. stops:           1
(PID.TID 0000.0001)   Seconds in section "THE_MAIN_LOOP          [THE_MODEL_MAIN]":
(PID.TID 0000.0001)           User time:   31.672185167670250
(PID.TID 0000.0001)         System time:  0.11998199298977852
(PID.TID 0000.0001)     Wall clock time:   31.926063060760498
(PID.TID 0000.0001)          No. starts:           1
(PID.TID 0000.0001)           No. stops:           1
(PID.TID 0000.0001)   Seconds in section "INITIALISE_VARIA    [THE_MAIN_LOOP]":
(PID.TID 0000.0001)           User time:  0.30395399034023285
(PID.TID 0000.0001)         System time:  2.99960002303123474E-002
(PID.TID 0000.0001)     Wall clock time:  0.38118290901184082
(PID.TID 0000.0001)          No. starts:           1
(PID.TID 0000.0001)           No. stops:           1
(PID.TID 0000.0001)   Seconds in section "MAIN LOOP           [THE_MAIN_LOOP]":
(PID.TID 0000.0001)           User time:   31.368231177330017
(PID.TID 0000.0001)         System time:  8.99859927594661713E-002
(PID.TID 0000.0001)     Wall clock time:   31.544848918914795
(PID.TID 0000.0001)          No. starts:           1
(PID.TID 0000.0001)           No. stops:           1
(PID.TID 0000.0001)   Seconds in section "MAIN_DO_LOOP        [THE_MAIN_LOOP]":
(PID.TID 0000.0001)           User time:   31.368231177330017
(PID.TID 0000.0001)         System time:  8.99859927594661713E-002
(PID.TID 0000.0001)     Wall clock time:   31.544666528701782
(PID.TID 0000.0001)          No. starts:          20
(PID.TID 0000.0001)           No. stops:          20
(PID.TID 0000.0001)   Seconds in section "FORWARD_STEP        [MAIN_DO_LOOP]":
(PID.TID 0000.0001)           User time:   31.368231177330017
(PID.TID 0000.0001)         System time:  8.99859927594661713E-002
(PID.TID 0000.0001)     Wall clock time:   31.544295787811279
(PID.TID 0000.0001)          No. starts:          20
(PID.TID 0000.0001)           No. stops:          20
(PID.TID 0000.0001)   Seconds in section "SHELFICE_REMESHING     [FORWARD_STEP]":
(PID.TID 0000.0001)           User time:  0.38694095611572266
(PID.TID 0000.0001)         System time:  1.99999660253524780E-003
(PID.TID 0000.0001)     Wall clock time:  0.39029288291931152
(PID.TID 0000.0001)          No. starts:          20
(PID.TID 0000.0001)           No. stops:          20
(PID.TID 0000.0001)   Seconds in section "DO_STATEVARS_DIAGS  [FORWARD_STEP]":
(PID.TID 0000.0001)           User time:  1.69982910156250000E-002
(PID.TID 0000.0001)         System time:  9.99998301267623901E-004
(PID.TID 0000.0001)     Wall clock time:  2.20828056335449219E-002
(PID.TID 0000.0001)          No. starts:          60
(PID.TID 0000.0001)           No. stops:          60
(PID.TID 0000.0001)   Seconds in section "LOAD_FIELDS_DRIVER  [FORWARD_STEP]":
(PID.TID 0000.0001)           User time:  9.99450683593750000E-004
(PID.TID 0000.0001)         System time:   0.0000000000000000
(PID.TID 0000.0001)     Wall clock time:  5.55038452148437500E-004
(PID.TID 0000.0001)          No. starts:          20
(PID.TID 0000.0001)           No. stops:          20
(PID.TID 0000.0001)   Seconds in section "EXTERNAL_FLDS_LOAD [LOAD_FLDS_DRIVER]":
(PID.TID 0000.0001)           User time:   0.0000000000000000
(PID.TID 0000.0001)         System time:   0.0000000000000000
(PID.TID 0000.0001)     Wall clock time:  1.87635421752929688E-004
(PID.TID 0000.0001)          No. starts:          20
(PID.TID 0000.0001)           No. stops:          20
(PID.TID 0000.0001)   Seconds in section "DO_ATMOSPHERIC_PHYS [FORWARD_STEP]":
(PID.TID 0000.0001)           User time:   0.0000000000000000
(PID.TID 0000.0001)         System time:   0.0000000000000000
(PID.TID 0000.0001)     Wall clock time:  1.84297561645507813E-004
(PID.TID 0000.0001)          No. starts:          20
(PID.TID 0000.0001)           No. stops:          20
(PID.TID 0000.0001)   Seconds in section "DO_OCEANIC_PHYS     [FORWARD_STEP]":
(PID.TID 0000.0001)           User time:  0.54490822553634644
(PID.TID 0000.0001)         System time:  1.00000202655792236E-003
(PID.TID 0000.0001)     Wall clock time:  0.54559683799743652
(PID.TID 0000.0001)          No. starts:          20
(PID.TID 0000.0001)           No. stops:          20
(PID.TID 0000.0001)   Seconds in section "SHELFICE_THERMODYNAMICS [DO_OCEANIC_PHYS]":
(PID.TID 0000.0001)           User time:  2.29988694190979004E-002
(PID.TID 0000.0001)         System time:   0.0000000000000000
(PID.TID 0000.0001)     Wall clock time:  2.42083072662353516E-002
(PID.TID 0000.0001)          No. starts:          20
(PID.TID 0000.0001)           No. stops:          20
(PID.TID 0000.0001)   Seconds in section "STREAMICE_TIMESTEP [FORWARD_STEP]":
(PID.TID 0000.0001)           User time:  4.49999570846557617E-002
(PID.TID 0000.0001)         System time:   0.0000000000000000
(PID.TID 0000.0001)     Wall clock time:  4.60681915283203125E-002
(PID.TID 0000.0001)          No. starts:          20
(PID.TID 0000.0001)           No. stops:          20
(PID.TID 0000.0001)   Seconds in section "STREAMICE_ADVECT_THICKNESS":
(PID.TID 0000.0001)           User time:  2.69981026649475098E-002
(PID.TID 0000.0001)         System time:   0.0000000000000000
(PID.TID 0000.0001)     Wall clock time:  2.50546932220458984E-002
(PID.TID 0000.0001)          No. starts:          20
(PID.TID 0000.0001)           No. stops:          20
(PID.TID 0000.0001)   Seconds in section "DYNAMICS            [FORWARD_STEP]":
(PID.TID 0000.0001)           User time:   12.843046009540558
(PID.TID 0000.0001)         System time:  2.69949957728385925E-002
(PID.TID 0000.0001)     Wall clock time:   12.896388769149780
(PID.TID 0000.0001)          No. starts:          20
(PID.TID 0000.0001)           No. stops:          20
(PID.TID 0000.0001)   Seconds in section "UPDATE_SURF_DR      [FORWARD_STEP]":
(PID.TID 0000.0001)           User time:  4.00018692016601563E-003
(PID.TID 0000.0001)         System time:   0.0000000000000000
(PID.TID 0000.0001)     Wall clock time:  5.58114051818847656E-003
(PID.TID 0000.0001)          No. starts:          20
(PID.TID 0000.0001)           No. stops:          20
(PID.TID 0000.0001)   Seconds in section "UPDATE_CG2D         [FORWARD_STEP]":
(PID.TID 0000.0001)           User time:  0.14697408676147461
(PID.TID 0000.0001)         System time:   0.0000000000000000
(PID.TID 0000.0001)     Wall clock time:  0.14760971069335938
(PID.TID 0000.0001)          No. starts:          20
(PID.TID 0000.0001)           No. stops:          20
(PID.TID 0000.0001)   Seconds in section "SOLVE_FOR_PRESSURE  [FORWARD_STEP]":
(PID.TID 0000.0001)           User time:  0.84987509250640869
(PID.TID 0000.0001)         System time:   0.0000000000000000
(PID.TID 0000.0001)     Wall clock time:  0.85020112991333008
(PID.TID 0000.0001)          No. starts:          20
(PID.TID 0000.0001)           No. stops:          20
(PID.TID 0000.0001)   Seconds in section "MOM_CORRECTION_STEP [FORWARD_STEP]":
(PID.TID 0000.0001)           User time:  0.43693208694458008
(PID.TID 0000.0001)         System time:  1.00000202655792236E-003
(PID.TID 0000.0001)     Wall clock time:  0.43720674514770508
(PID.TID 0000.0001)          No. starts:          20
(PID.TID 0000.0001)           No. stops:          20
(PID.TID 0000.0001)   Seconds in section "INTEGR_CONTINUITY   [FORWARD_STEP]":
(PID.TID 0000.0001)           User time:  0.45692956447601318
(PID.TID 0000.0001)         System time:   0.0000000000000000
(PID.TID 0000.0001)     Wall clock time:  0.45932292938232422
(PID.TID 0000.0001)          No. starts:          20
(PID.TID 0000.0001)           No. stops:          20
(PID.TID 0000.0001)   Seconds in section "CALC_SURF_DR      [FORWARD_STEP]":
(PID.TID 0000.0001)           User time:  1.09968185424804688E-002
(PID.TID 0000.0001)         System time:   0.0000000000000000
(PID.TID 0000.0001)     Wall clock time:  1.09384059906005859E-002
(PID.TID 0000.0001)          No. starts:          20
(PID.TID 0000.0001)           No. stops:          20
(PID.TID 0000.0001)   Seconds in section "BLOCKING_EXCHANGES  [FORWARD_STEP]":
(PID.TID 0000.0001)           User time:  0.53191864490509033
(PID.TID 0000.0001)         System time:   0.0000000000000000
(PID.TID 0000.0001)     Wall clock time:  0.52963376045227051
(PID.TID 0000.0001)          No. starts:          40
(PID.TID 0000.0001)           No. stops:          40
(PID.TID 0000.0001)   Seconds in section "THERMODYNAMICS      [FORWARD_STEP]":
(PID.TID 0000.0001)           User time:   11.891196250915527
(PID.TID 0000.0001)         System time:  2.79950052499771118E-002
(PID.TID 0000.0001)     Wall clock time:   11.959434270858765
(PID.TID 0000.0001)          No. starts:          20
(PID.TID 0000.0001)           No. stops:          20
(PID.TID 0000.0001)   Seconds in section "TRC_CORRECTION_STEP [FORWARD_STEP]":
(PID.TID 0000.0001)           User time:   1.4757754802703857
(PID.TID 0000.0001)         System time:  1.99999660253524780E-003
(PID.TID 0000.0001)     Wall clock time:   1.4840967655181885
(PID.TID 0000.0001)          No. starts:          20
(PID.TID 0000.0001)           No. stops:          20
(PID.TID 0000.0001)   Seconds in section "MONITOR             [FORWARD_STEP]":
(PID.TID 0000.0001)           User time:   1.5567628145217896
(PID.TID 0000.0001)         System time:  7.99900293350219727E-003
(PID.TID 0000.0001)     Wall clock time:   1.5679137706756592
(PID.TID 0000.0001)          No. starts:          20
(PID.TID 0000.0001)           No. stops:          20
(PID.TID 0000.0001)   Seconds in section "DO_THE_MODEL_IO     [FORWARD_STEP]":
(PID.TID 0000.0001)           User time:  0.13398313522338867
(PID.TID 0000.0001)         System time:  1.69980004429817200E-002
(PID.TID 0000.0001)     Wall clock time:  0.14853811264038086
(PID.TID 0000.0001)          No. starts:          20
(PID.TID 0000.0001)           No. stops:          20
(PID.TID 0000.0001)   Seconds in section "DO_WRITE_PICKUP     [FORWARD_STEP]":
(PID.TID 0000.0001)           User time:  3.39946746826171875E-002
(PID.TID 0000.0001)         System time:  2.99899280071258545E-003
(PID.TID 0000.0001)     Wall clock time:  3.81071567535400391E-002
(PID.TID 0000.0001)          No. starts:          20
(PID.TID 0000.0001)           No. stops:          20
(PID.TID 0000.0001) // ======================================================
(PID.TID 0000.0001) // Tile <-> Tile communication statistics
(PID.TID 0000.0001) // ======================================================
(PID.TID 0000.0001) // o Tile number: 000001
(PID.TID 0000.0001) //         No. X exchanges =              0
(PID.TID 0000.0001) //            Max. X spins =              0
(PID.TID 0000.0001) //            Min. X spins =     1000000000
(PID.TID 0000.0001) //          Total. X spins =              0
(PID.TID 0000.0001) //            Avg. X spins =       0.00E+00
(PID.TID 0000.0001) //         No. Y exchanges =              0
(PID.TID 0000.0001) //            Max. Y spins =              0
(PID.TID 0000.0001) //            Min. Y spins =     1000000000
(PID.TID 0000.0001) //          Total. Y spins =              0
(PID.TID 0000.0001) //            Avg. Y spins =       0.00E+00
(PID.TID 0000.0001) // o Thread number: 000001
(PID.TID 0000.0001) //            No. barriers =          25336
(PID.TID 0000.0001) //      Max. barrier spins =              1
(PID.TID 0000.0001) //      Min. barrier spins =              1
(PID.TID 0000.0001) //     Total barrier spins =          25336
(PID.TID 0000.0001) //      Avg. barrier spins =       1.00E+00
PROGRAM MAIN: Execution ended Normally
