(PID.TID 0000.0001) 
(PID.TID 0000.0001) // ======================================================
(PID.TID 0000.0001) //                      MITgcm UV
(PID.TID 0000.0001) //                      =========
(PID.TID 0000.0001) // ======================================================
(PID.TID 0000.0001) // execution environment starting up...
(PID.TID 0000.0001) 
(PID.TID 0000.0001) // MITgcmUV version:  checkpoint58j_post
(PID.TID 0000.0001) // Build user:        jmc
(PID.TID 0000.0001) // Build host:        faulks
(PID.TID 0000.0001) // Build date:        Wed Jul  5 16:10:24 EDT 2006
(PID.TID 0000.0001) 
(PID.TID 0000.0001) // =======================================================
(PID.TID 0000.0001) // Execution Environment parameter file "eedata"
(PID.TID 0000.0001) // =======================================================
(PID.TID 0000.0001) ># Example "eedata" file
(PID.TID 0000.0001) ># Lines beginning "#" are comments
(PID.TID 0000.0001) ># nTx - No. threads per process in X
(PID.TID 0000.0001) ># nTy - No. threads per process in Y
(PID.TID 0000.0001) > &EEPARMS
(PID.TID 0000.0001) > &
(PID.TID 0000.0001) ># Note: Some systems use & as the
(PID.TID 0000.0001) ># namelist terminator. Other systems
(PID.TID 0000.0001) ># use a / character (as shown here).
(PID.TID 0000.0001) 
(PID.TID 0000.0001) // =======================================================
(PID.TID 0000.0001) // Computational Grid Specification ( see files "SIZE.h" )
(PID.TID 0000.0001) //                                  ( and "eedata"       )
(PID.TID 0000.0001) // =======================================================
(PID.TID 0000.0001)      nPx =    1 ; /* No. processes in X */
(PID.TID 0000.0001)      nPy =    1 ; /* No. processes in Y */
(PID.TID 0000.0001)      nSx =    1 ; /* No. tiles in X per process */
(PID.TID 0000.0001)      nSy =    1 ; /* No. tiles in Y per process */
(PID.TID 0000.0001)      sNx =  120 ; /* Tile size in X */
(PID.TID 0000.0001)      sNy =   31 ; /* Tile size in Y */
(PID.TID 0000.0001)      OLx =    3 ; /* Tile overlap distance in X */
(PID.TID 0000.0001)      OLy =    3 ; /* Tile overlap distance in Y */
(PID.TID 0000.0001)      nTx =    1 ; /* No. threads in X per process */
(PID.TID 0000.0001)      nTy =    1 ; /* No. threads in Y per process */
(PID.TID 0000.0001)       Nr =   29 ; /* No. levels in the vertical   */
(PID.TID 0000.0001)       nX =  120 ; /* Total domain size in X ( = nPx*nSx*sNx ) */
(PID.TID 0000.0001)       nY =   31 ; /* Total domain size in Y ( = nPy*nSy*sNy ) */
(PID.TID 0000.0001)   nTiles =    1 ; /* Total no. tiles per process ( = nSx*nSy ) */
(PID.TID 0000.0001)   nProcs =    1 ; /* Total no. processes ( = nPx*nPy ) */
(PID.TID 0000.0001) nThreads =    1 ; /* Total no. threads per process ( = nTx*nTy ) */
(PID.TID 0000.0001) usingMPI =    F ; /* Flag used to control whether MPI is in use */
(PID.TID 0000.0001)                   /*  note: To execute a program with MPI calls */
(PID.TID 0000.0001)                   /*  it must be launched appropriately e.g     */
(PID.TID 0000.0001)                   /*  "mpirun -np 64 ......"                    */
(PID.TID 0000.0001) useCoupler=   F ; /* Flag used to control communications with */
(PID.TID 0000.0001)                   /*  other model components, through a coupler */
(PID.TID 0000.0001) 
(PID.TID 0000.0001) // ======================================================
(PID.TID 0000.0001) // Mapping of tiles to threads
(PID.TID 0000.0001) // ======================================================
(PID.TID 0000.0001) // -o- Thread   1, tiles (   1:   1,   1:   1)
(PID.TID 0000.0001) 
(PID.TID 0000.0001) // ======================================================
(PID.TID 0000.0001) // Tile <-> Tile connectvity table
(PID.TID 0000.0001) // ======================================================
(PID.TID 0000.0001) // Tile number: 000001 (process no. = 000001)
(PID.TID 0000.0001) //        WEST: Tile = 000001, Process = 000001, Comm = put
(PID.TID 0000.0001) //                bi = 000001, bj = 000001
(PID.TID 0000.0001) //        EAST: Tile = 000001, Process = 000001, Comm = put
(PID.TID 0000.0001) //                bi = 000001, bj = 000001
(PID.TID 0000.0001) //       SOUTH: Tile = 000001, Process = 000001, Comm = put
(PID.TID 0000.0001) //                bi = 000001, bj = 000001
(PID.TID 0000.0001) //       NORTH: Tile = 000001, Process = 000001, Comm = put
(PID.TID 0000.0001) //                bi = 000001, bj = 000001
(PID.TID 0000.0001) 
(PID.TID 0000.0001) // =======================================================
(PID.TID 0000.0001) // Model parameter file "data"
(PID.TID 0000.0001) // =======================================================
(PID.TID 0000.0001) ># ====================
(PID.TID 0000.0001) ># | Model parameters |
(PID.TID 0000.0001) ># ====================
(PID.TID 0000.0001) >#
(PID.TID 0000.0001) ># Continuous equation parameters
(PID.TID 0000.0001) > &PARM01
(PID.TID 0000.0001) > tRef=29*20.0,
(PID.TID 0000.0001) > sRef=29*35.0,
(PID.TID 0000.0001) > viscAh=5.0E-6,
(PID.TID 0000.0001) > viscAz=5.0E-6,
(PID.TID 0000.0001) > no_slip_sides=.FALSE.,
(PID.TID 0000.0001) > no_slip_bottom=.FALSE.,
(PID.TID 0000.0001) > diffKhT=2.5E-6,
(PID.TID 0000.0001) > diffKzT=2.5E-6,
(PID.TID 0000.0001) > diffKhS=1.0E-6,
(PID.TID 0000.0001) > diffKzS=1.0E-6,
(PID.TID 0000.0001) > f0=0.5,
(PID.TID 0000.0001) > sBeta =0.,
(PID.TID 0000.0001) > gravity=9.81,
(PID.TID 0000.0001) > rhoConst=1000.0,
(PID.TID 0000.0001) > rhoNil=1000.0,
(PID.TID 0000.0001) ># heatCapacity_Cp=3900.0,
(PID.TID 0000.0001) > rigidLid=.TRUE.,
(PID.TID 0000.0001) > implicitFreeSurface=.FALSE.,
(PID.TID 0000.0001) > eosType='LINEAR',
(PID.TID 0000.0001) > nonHydrostatic=.TRUE.,
(PID.TID 0000.0001) > readBinaryPrec=32,
(PID.TID 0000.0001) > &
(PID.TID 0000.0001) >
(PID.TID 0000.0001) ># Elliptic solver parameters
(PID.TID 0000.0001) > &PARM02
(PID.TID 0000.0001) > cg2dMaxIters=1000,
(PID.TID 0000.0001) > cg2dTargetResidual=1.E-7,
(PID.TID 0000.0001) > cg3dMaxIters=10,
(PID.TID 0000.0001) > cg3dTargetResidual=1.E-9,
(PID.TID 0000.0001) > &
(PID.TID 0000.0001) >
(PID.TID 0000.0001) ># Time stepping parameters
(PID.TID 0000.0001) > &PARM03
(PID.TID 0000.0001) > nIter0=0,
(PID.TID 0000.0001) > nTimeSteps=20,
(PID.TID 0000.0001) ># nTimeSteps=36000000,
(PID.TID 0000.0001) > deltaT=0.1,
(PID.TID 0000.0001) > abEps=0.1,
(PID.TID 0000.0001) > pChkptFreq=2.0,
(PID.TID 0000.0001) > chkptFreq=2.0,
(PID.TID 0000.0001) > dumpFreq=2.0,
(PID.TID 0000.0001) > monitorFreq=0.1,
(PID.TID 0000.0001) ># outputTypesInclusive=.TRUE.,
(PID.TID 0000.0001) > &
(PID.TID 0000.0001) >
(PID.TID 0000.0001) ># Gridding parameters
(PID.TID 0000.0001) > &PARM04
(PID.TID 0000.0001) > usingCartesianGrid=.FALSE.,
(PID.TID 0000.0001) > usingCylindricalGrid=.TRUE.,
(PID.TID 0000.0001) > usingCurvilinearGrid=.FALSE.,
(PID.TID 0000.0001) > dXspacing=3,
(PID.TID 0000.0001) > dYspacing=0.01,
(PID.TID 0000.0001) > delZ=29*0.005,
(PID.TID 0000.0001) > &
(PID.TID 0000.0001) >
(PID.TID 0000.0001) ># Input datasets
(PID.TID 0000.0001) > &PARM05
(PID.TID 0000.0001) > hydrogThetaFile='thetaPol.bin',
(PID.TID 0000.0001) > bathyFile='bathyPol.bin',
(PID.TID 0000.0001) > tCylIn  = 0
(PID.TID 0000.0001) > tCylOut  = 20
(PID.TID 0000.0001) > &
(PID.TID 0000.0001) 
(PID.TID 0000.0001) S/R INI_PARMS ; starts to read PARM01
(PID.TID 0000.0001) S/R INI_PARMS ; read PARM01 : OK
(PID.TID 0000.0001) S/R INI_PARMS ; starts to read PARM02
(PID.TID 0000.0001) S/R INI_PARMS ; read PARM02 : OK
(PID.TID 0000.0001) S/R INI_PARMS ; starts to read PARM03
(PID.TID 0000.0001) S/R INI_PARMS ; read PARM03 : OK
(PID.TID 0000.0001) S/R INI_PARMS ; starts to read PARM04
(PID.TID 0000.0001) S/R INI_PARMS ; read PARM04 : OK
(PID.TID 0000.0001) S/R INI_PARMS ; Cylinder OK
(PID.TID 0000.0001) S/R INI_PARMS ; starts to read PARM05
(PID.TID 0000.0001) S/R INI_PARMS ; read PARM05 : OK
(PID.TID 0000.0001)  PACKAGES_BOOT: opening data.pkg
(PID.TID 0000.0001)  OPEN_COPY_DATA_FILE: opening file data.pkg
(PID.TID 0000.0001) // =======================================================
(PID.TID 0000.0001) // Parameter file "data.pkg"
(PID.TID 0000.0001) // =======================================================
(PID.TID 0000.0001) ># Packages
(PID.TID 0000.0001) > &PACKAGES
(PID.TID 0000.0001) > useMNC=.TRUE.,
(PID.TID 0000.0001) > &
(PID.TID 0000.0001) 
(PID.TID 0000.0001)  PACKAGES_BOOT: finished reading data.pkg
(PID.TID 0000.0001)  MNC_READPARMS: opening file 'data.mnc'
(PID.TID 0000.0001)  OPEN_COPY_DATA_FILE: opening file data.mnc
(PID.TID 0000.0001) // =======================================================
(PID.TID 0000.0001) // Parameter file "data.mnc"
(PID.TID 0000.0001) // =======================================================
(PID.TID 0000.0001) ># Example "data.mnc" file
(PID.TID 0000.0001) ># Lines beginning "#" are comments
(PID.TID 0000.0001) > &MNC_01
(PID.TID 0000.0001) ># mnc_echo_gvtypes=.FALSE.,
(PID.TID 0000.0001) ># mnc_use_indir=.FALSE.,
(PID.TID 0000.0001) > mnc_use_outdir=.TRUE.,
(PID.TID 0000.0001) > mnc_outdir_str='mnc_test_',
(PID.TID 0000.0001) > mnc_outdir_date=.TRUE.,
(PID.TID 0000.0001) > monitor_mnc=.FALSE.,
(PID.TID 0000.0001) > snapshot_mnc=.TRUE.,
(PID.TID 0000.0001) > timeave_mnc=.TRUE.,
(PID.TID 0000.0001) >#pickup_write_mnc=.TRUE.,
(PID.TID 0000.0001) > &
(PID.TID 0000.0001) ># Note: Some systems use & as the
(PID.TID 0000.0001) ># namelist terminator. Other systems
(PID.TID 0000.0001) ># use a / character.
(PID.TID 0000.0001) 
(PID.TID 0000.0001)  MNC_READPARMS: finished reading data.mnc
(PID.TID 0000.0001) SET_PARMS: done
(PID.TID 0000.0001) %MON XC_max                       =   3.5850000000000E+02
(PID.TID 0000.0001) %MON XC_min                       =   1.5000000000000E+00
(PID.TID 0000.0001) %MON XC_mean                      =   1.8000000000000E+02
(PID.TID 0000.0001) %MON XC_sd                        =   1.0391943995230E+02
(PID.TID 0000.0001) %MON XG_max                       =   3.5700000000000E+02
(PID.TID 0000.0001) %MON XG_min                       =   3.0000000000000E+00
(PID.TID 0000.0001) %MON XG_mean                      =   1.8000000000000E+02
(PID.TID 0000.0001) %MON XG_sd                        =   1.0305338422391E+02
(PID.TID 0000.0001) %MON DXC_max                      =   1.5969762655748E-02
(PID.TID 0000.0001) %MON DXC_min                      =   2.6179938779915E-04
(PID.TID 0000.0001) %MON DXC_mean                     =   8.1157810217737E-03
(PID.TID 0000.0001) %MON DXC_sd                       =   4.6832098206938E-03
(PID.TID 0000.0001) %MON DXF_max                      =   1.5969762655748E-02
(PID.TID 0000.0001) %MON DXF_min                      =   2.6179938779915E-04
(PID.TID 0000.0001) %MON DXF_mean                     =   8.1157810217737E-03
(PID.TID 0000.0001) %MON DXF_sd                       =   4.6832098206938E-03
(PID.TID 0000.0001) %MON DXG_max                      =   1.5707963267949E-02
(PID.TID 0000.0001) %MON DXG_min                      =   1.8165981760462E-19
(PID.TID 0000.0001) %MON DXG_mean                     =   7.8539816339745E-03
(PID.TID 0000.0001) %MON DXG_sd                       =   4.6832098206938E-03
(PID.TID 0000.0001) %MON DXV_max                      =   1.5707963267949E-02
(PID.TID 0000.0001) %MON DXV_min                      =   1.8165981760462E-19
(PID.TID 0000.0001) %MON DXV_mean                     =   7.8539816339745E-03
(PID.TID 0000.0001) %MON DXV_sd                       =   4.6832098206938E-03
(PID.TID 0000.0001) %MON YC_max                       =   3.0500000000000E-01
(PID.TID 0000.0001) %MON YC_min                       =   5.0000000000000E-03
(PID.TID 0000.0001) %MON YC_mean                      =   1.5500000000000E-01
(PID.TID 0000.0001) %MON YC_sd                        =   8.9442719099991E-02
(PID.TID 0000.0001) %MON YG_max                       =   3.0000000000000E-01
(PID.TID 0000.0001) %MON YG_min                       =   3.4694469519536E-18
(PID.TID 0000.0001) %MON YG_mean                      =   1.5000000000000E-01
(PID.TID 0000.0001) %MON YG_sd                        =   8.9442719099991E-02
(PID.TID 0000.0001) %MON DYC_max                      =   1.0000000000000E-02
(PID.TID 0000.0001) %MON DYC_min                      =   1.0000000000000E-02
(PID.TID 0000.0001) %MON DYC_mean                     =   1.0000000000000E-02
(PID.TID 0000.0001) %MON DYC_sd                       =   3.1398494915180E-16
(PID.TID 0000.0001) %MON DYF_max                      =   1.0000000000000E-02
(PID.TID 0000.0001) %MON DYF_min                      =   1.0000000000000E-02
(PID.TID 0000.0001) %MON DYF_mean                     =   1.0000000000000E-02
(PID.TID 0000.0001) %MON DYF_sd                       =   3.1398494915180E-16
(PID.TID 0000.0001) %MON DYG_max                      =   1.0000000000000E-02
(PID.TID 0000.0001) %MON DYG_min                      =   1.0000000000000E-02
(PID.TID 0000.0001) %MON DYG_mean                     =   1.0000000000000E-02
(PID.TID 0000.0001) %MON DYG_sd                       =   3.1398494915180E-16
(PID.TID 0000.0001) %MON DYU_max                      =   1.0000000000000E-02
(PID.TID 0000.0001) %MON DYU_min                      =   1.0000000000000E-02
(PID.TID 0000.0001) %MON DYU_mean                     =   1.0000000000000E-02
(PID.TID 0000.0001) %MON DYU_sd                       =   3.1398494915180E-16
(PID.TID 0000.0001) %MON RA_max                       =   1.5969762655748E-04
(PID.TID 0000.0001) %MON RA_min                       =   2.6179938779915E-06
(PID.TID 0000.0001) %MON RA_mean                      =   8.1157810217737E-05
(PID.TID 0000.0001) %MON RA_sd                        =   4.6832098206938E-05
(PID.TID 0000.0001) %MON RAW_max                      =   1.5969762655748E-04
(PID.TID 0000.0001) %MON RAW_min                      =   2.6179938779915E-06
(PID.TID 0000.0001) %MON RAW_mean                     =   8.1157810217737E-05
(PID.TID 0000.0001) %MON RAW_sd                       =   4.6832098206938E-05
(PID.TID 0000.0001) %MON RAS_max                      =   1.5707963267949E-04
(PID.TID 0000.0001) %MON RAS_min                      =   1.8165981760462E-21
(PID.TID 0000.0001) %MON RAS_mean                     =   7.8539816339742E-05
(PID.TID 0000.0001) %MON RAS_sd                       =   4.6832098206938E-05
(PID.TID 0000.0001) %MON RAZ_max                      =   1.5707963267949E-04
(PID.TID 0000.0001) %MON RAZ_min                      =   1.8165981760462E-21
(PID.TID 0000.0001) %MON RAZ_mean                     =   7.8539816339742E-05
(PID.TID 0000.0001) %MON RAZ_sd                       =   4.6832098206938E-05
(PID.TID 0000.0001) %MON AngleCS_max                  =   1.0000000000000E+00
(PID.TID 0000.0001) %MON AngleCS_min                  =   1.0000000000000E+00
(PID.TID 0000.0001) %MON AngleCS_mean                 =   1.0000000000000E+00
(PID.TID 0000.0001) %MON AngleCS_sd                   =   0.0000000000000E+00
(PID.TID 0000.0001) %MON AngleSN_max                  =   0.0000000000000E+00
(PID.TID 0000.0001) %MON AngleSN_min                  =   0.0000000000000E+00
(PID.TID 0000.0001) %MON AngleSN_mean                 =   0.0000000000000E+00
(PID.TID 0000.0001) %MON AngleSN_sd                   =   0.0000000000000E+00
(PID.TID 0000.0001)  MDSREADFIELD: opening global file: bathyPol.bin
(PID.TID 0000.0001) // =======================================================
(PID.TID 0000.0001) // Field Bottom depths (ini_depths) at iteration          1
(PID.TID 0000.0001) // CMIN =         -1.449999958276749E-01
(PID.TID 0000.0001) // CMAX =         -1.449999958276749E-01
(PID.TID 0000.0001) // CINT =          0.000000000000000E+00
(PID.TID 0000.0001) // SYMBOLS (CMIN->CMAX): -abcdefghijklmnopqrstuvwxyz+
(PID.TID 0000.0001) //                  0.0: .
(PID.TID 0000.0001) // RANGE I (Lo:Hi:Step):(  -2: 123:   1)
(PID.TID 0000.0001) // RANGE J (Lo:Hi:Step):(  34:  -2:  -1)
(PID.TID 0000.0001) // RANGE K (Lo:Hi:Step):(   1:   1:   1)
(PID.TID 0000.0001) // =======================================================
(PID.TID 0000.0001) // =======================================================
(PID.TID 0000.0001) // END OF FIELD                                          =
(PID.TID 0000.0001) // =======================================================
(PID.TID 0000.0001) 
(PID.TID 0000.0001) // =======================================================
(PID.TID 0000.0001) // Field Model R_low (ini_masks_etc) at iteration          1
(PID.TID 0000.0001) // CMIN =         -1.450000000000000E-01
(PID.TID 0000.0001) // CMAX =         -1.450000000000000E-01
(PID.TID 0000.0001) // CINT =          0.000000000000000E+00
(PID.TID 0000.0001) // SYMBOLS (CMIN->CMAX): -abcdefghijklmnopqrstuvwxyz+
(PID.TID 0000.0001) //                  0.0: .
(PID.TID 0000.0001) // RANGE I (Lo:Hi:Step):(  -2: 123:   1)
(PID.TID 0000.0001) // RANGE J (Lo:Hi:Step):(  34:  -2:  -1)
(PID.TID 0000.0001) // RANGE K (Lo:Hi:Step):(   1:   1:   1)
(PID.TID 0000.0001) // =======================================================
(PID.TID 0000.0001) // =======================================================
(PID.TID 0000.0001) // END OF FIELD                                          =
(PID.TID 0000.0001) // =======================================================
(PID.TID 0000.0001) 
(PID.TID 0000.0001) // =======================================================
(PID.TID 0000.0001) // Field Model Ro_surf (ini_masks_etc) at iteration          1
(PID.TID 0000.0001) // CMIN =          1.561251128379126E-17
(PID.TID 0000.0001) // CMAX =          1.561251128379126E-17
(PID.TID 0000.0001) // CINT =          0.000000000000000E+00
(PID.TID 0000.0001) // SYMBOLS (CMIN->CMAX): -abcdefghijklmnopqrstuvwxyz+
(PID.TID 0000.0001) //                  0.0: .
(PID.TID 0000.0001) // RANGE I (Lo:Hi:Step):(  -2: 123:   1)
(PID.TID 0000.0001) // RANGE J (Lo:Hi:Step):(  34:  -2:  -1)
(PID.TID 0000.0001) // RANGE K (Lo:Hi:Step):(   1:   1:   1)
(PID.TID 0000.0001) // =======================================================
(PID.TID 0000.0001) // =======================================================
(PID.TID 0000.0001) // END OF FIELD                                          =
(PID.TID 0000.0001) // =======================================================
(PID.TID 0000.0001) 
(PID.TID 0000.0001) // =======================================================
(PID.TID 0000.0001) // Field hFacC at iteration          1
(PID.TID 0000.0001) // CMIN =          1.000000000000000E+00
(PID.TID 0000.0001) // CMAX =          1.000000000000000E+00
(PID.TID 0000.0001) // CINT =          0.000000000000000E+00
(PID.TID 0000.0001) // SYMBOLS (CMIN->CMAX): -abcdefghijklmnopqrstuvwxyz+
(PID.TID 0000.0001) //                  0.0: .
(PID.TID 0000.0001) // RANGE I (Lo:Hi:Step):(  -2: 123:   1)
(PID.TID 0000.0001) // RANGE J (Lo:Hi:Step):(  34:  -2:  -1)
(PID.TID 0000.0001) // RANGE K (Lo:Hi:Step):(   1:   1:   1)
(PID.TID 0000.0001) // =======================================================
(PID.TID 0000.0001) // =======================================================
(PID.TID 0000.0001) // END OF FIELD                                          =
(PID.TID 0000.0001) // =======================================================
(PID.TID 0000.0001) 
(PID.TID 0000.0001) // =======================================================
(PID.TID 0000.0001) // Field hFacW at iteration          1
(PID.TID 0000.0001) // CMIN =          1.000000000000000E+00
(PID.TID 0000.0001) // CMAX =          1.000000000000000E+00
(PID.TID 0000.0001) // CINT =          0.000000000000000E+00
(PID.TID 0000.0001) // SYMBOLS (CMIN->CMAX): -abcdefghijklmnopqrstuvwxyz+
(PID.TID 0000.0001) //                  0.0: .
(PID.TID 0000.0001) // RANGE I (Lo:Hi:Step):(  -2: 123:   1)
(PID.TID 0000.0001) // RANGE J (Lo:Hi:Step):(  34:  -2:  -1)
(PID.TID 0000.0001) // RANGE K (Lo:Hi:Step):(   1:   1:   1)
(PID.TID 0000.0001) // =======================================================
(PID.TID 0000.0001) // =======================================================
(PID.TID 0000.0001) // END OF FIELD                                          =
(PID.TID 0000.0001) // =======================================================
(PID.TID 0000.0001) 
(PID.TID 0000.0001) // =======================================================
(PID.TID 0000.0001) // Field hFacS at iteration          1
(PID.TID 0000.0001) // CMIN =          1.000000000000000E+00
(PID.TID 0000.0001) // CMAX =          1.000000000000000E+00
(PID.TID 0000.0001) // CINT =          0.000000000000000E+00
(PID.TID 0000.0001) // SYMBOLS (CMIN->CMAX): -abcdefghijklmnopqrstuvwxyz+
(PID.TID 0000.0001) //                  0.0: .
(PID.TID 0000.0001) // RANGE I (Lo:Hi:Step):(  -2: 123:   1)
(PID.TID 0000.0001) // RANGE J (Lo:Hi:Step):(  34:  -2:  -1)
(PID.TID 0000.0001) // RANGE K (Lo:Hi:Step):(   1:   1:   1)
(PID.TID 0000.0001) // =======================================================
(PID.TID 0000.0001) // =======================================================
(PID.TID 0000.0001) // END OF FIELD                                          =
(PID.TID 0000.0001) // =======================================================
(PID.TID 0000.0001) 
(PID.TID 0000.0001) 
(PID.TID 0000.0001) // ===================================
(PID.TID 0000.0001) // GAD parameters :
(PID.TID 0000.0001) // ===================================
(PID.TID 0000.0001) tempAdvScheme =   /* Temp. Horiz.Advection scheme selector */
(PID.TID 0000.0001)                       2
(PID.TID 0000.0001)     ;
(PID.TID 0000.0001) tempVertAdvScheme =   /* Temp. Vert. Advection scheme selector */
(PID.TID 0000.0001)                       2
(PID.TID 0000.0001)     ;
(PID.TID 0000.0001) tempMultiDimAdvec =   /* use Muti-Dim Advec method for Temp */
(PID.TID 0000.0001)                   F
(PID.TID 0000.0001)     ;
(PID.TID 0000.0001) AdamsBashforthGt =   /* apply Adams-Bashforth extrapolation on Gt */
(PID.TID 0000.0001)                   T
(PID.TID 0000.0001)     ;
(PID.TID 0000.0001) AdamsBashforth_T =   /* apply Adams-Bashforth extrapolation on Temp */
(PID.TID 0000.0001)                   F
(PID.TID 0000.0001)     ;
(PID.TID 0000.0001) saltAdvScheme =   /* Salt. Horiz.advection scheme selector */
(PID.TID 0000.0001)                       2
(PID.TID 0000.0001)     ;
(PID.TID 0000.0001) saltVertAdvScheme =   /* Salt. Vert. Advection scheme selector */
(PID.TID 0000.0001)                       2
(PID.TID 0000.0001)     ;
(PID.TID 0000.0001) saltMultiDimAdvec =   /* use Muti-Dim Advec method for Salt */
(PID.TID 0000.0001)                   F
(PID.TID 0000.0001)     ;
(PID.TID 0000.0001) AdamsBashforthGs =   /* apply Adams-Bashforth extrapolation on Gs */
(PID.TID 0000.0001)                   T
(PID.TID 0000.0001)     ;
(PID.TID 0000.0001) AdamsBashforth_S =   /* apply Adams-Bashforth extrapolation on Salt */
(PID.TID 0000.0001)                   F
(PID.TID 0000.0001)     ;
(PID.TID 0000.0001) // ===================================
(PID.TID 0000.0001) %MON fCori_max                    =   5.0000000000305E-01
(PID.TID 0000.0001) %MON fCori_min                    =   5.0000000000005E-01
(PID.TID 0000.0001) %MON fCori_mean                   =   5.0000000000155E-01
(PID.TID 0000.0001) %MON fCori_sd                     =   8.9443053802850E-13
(PID.TID 0000.0001) %MON fCoriG_max                   =   5.0000000000300E-01
(PID.TID 0000.0001) %MON fCoriG_min                   =   5.0000000000000E-01
(PID.TID 0000.0001) %MON fCoriG_mean                  =   5.0000000000150E-01
(PID.TID 0000.0001) %MON fCoriG_sd                    =   8.9443906273474E-13
(PID.TID 0000.0001) %MON fCoriCos_max                 =   0.0000000000000E+00
(PID.TID 0000.0001) %MON fCoriCos_min                 =   0.0000000000000E+00
(PID.TID 0000.0001) %MON fCoriCos_mean                =   0.0000000000000E+00
(PID.TID 0000.0001) %MON fCoriCos_sd                  =   0.0000000000000E+00
(PID.TID 0000.0001) INI_CG2D: CG2D normalisation factor =  3.0693721328176142E+00
(PID.TID 0000.0001) 
(PID.TID 0000.0001) // CG3D normalisation factor =          0.3237049690004649704633266E+02
(PID.TID 0000.0001) 
(PID.TID 0000.0001) CONFIG_CHECK: OK
(PID.TID 0000.0001) // =======================================================
(PID.TID 0000.0001) // Model configuration
(PID.TID 0000.0001) // =======================================================
(PID.TID 0000.0001) //
(PID.TID 0000.0001) // "Physical" paramters ( PARM01 in namelist )
(PID.TID 0000.0001) //
(PID.TID 0000.0001) buoyancyRelation = OCEANIC
(PID.TID 0000.0001) fluidIsAir  =  /* fluid major constituent is Air */
(PID.TID 0000.0001)                   F
(PID.TID 0000.0001)     ;
(PID.TID 0000.0001) fluidIsWater=  /* fuild major constituent is Water */
(PID.TID 0000.0001)                   T
(PID.TID 0000.0001)     ;
(PID.TID 0000.0001) usingPCoords =  /* use p (or p*) vertical coordinate */
(PID.TID 0000.0001)                   F
(PID.TID 0000.0001)     ;
(PID.TID 0000.0001) usingZCoords =  /* use z (or z*) vertical coordinate */
(PID.TID 0000.0001)                   T
(PID.TID 0000.0001)     ;
(PID.TID 0000.0001) tRef =   /* Reference temperature profile ( oC or K ) */
(PID.TID 0000.0001)    29 @  2.000000000000000E+01              /* K =  1: 29 */
(PID.TID 0000.0001)     ;
(PID.TID 0000.0001) sRef =   /* Reference salinity profile ( psu ) */
(PID.TID 0000.0001)    29 @  3.500000000000000E+01              /* K =  1: 29 */
(PID.TID 0000.0001)     ;
(PID.TID 0000.0001) viscAh =   /* Lateral eddy viscosity ( m^2/s ) */
(PID.TID 0000.0001)                 5.000000000000000E-06
(PID.TID 0000.0001)     ;
(PID.TID 0000.0001) viscAhMax =   /* Maximum lateral eddy viscosity ( m^2/s ) */
(PID.TID 0000.0001)                 1.000000000000000E+21
(PID.TID 0000.0001)     ;
(PID.TID 0000.0001) viscAhGrid =   /* Grid dependent lateral eddy viscosity ( non-dim. ) */
(PID.TID 0000.0001)                 0.000000000000000E+00
(PID.TID 0000.0001)     ;
(PID.TID 0000.0001) useFullLeith =   /* Use Full Form of Leith Viscosity on/off flag*/
(PID.TID 0000.0001)                   F
(PID.TID 0000.0001)     ;
(PID.TID 0000.0001) useStrainTensionVisc =   /* Use StrainTension Form of Viscous Operator on/off flag*/
(PID.TID 0000.0001)                   F
(PID.TID 0000.0001)     ;
(PID.TID 0000.0001) useAreaViscLength =   /* Use area for visc length instead of geom. mean*/
(PID.TID 0000.0001)                   F
(PID.TID 0000.0001)     ;
(PID.TID 0000.0001) viscC2leith = /* Leith harmonic visc. factor (on grad(vort),non-dim.) */
(PID.TID 0000.0001)                 0.000000000000000E+00
(PID.TID 0000.0001)     ;
(PID.TID 0000.0001) viscC2leithD = /* Leith harmonic viscosity factor (on grad(div),non-dim.) */
(PID.TID 0000.0001)                 0.000000000000000E+00
(PID.TID 0000.0001)     ;
(PID.TID 0000.0001) viscC2smag =   /* Smagorinsky harmonic viscosity factor (non-dim.) */
(PID.TID 0000.0001)                 0.000000000000000E+00
(PID.TID 0000.0001)     ;
(PID.TID 0000.0001) viscA4 =   /* Lateral biharmonic viscosity ( m^4/s ) */
(PID.TID 0000.0001)                 0.000000000000000E+00
(PID.TID 0000.0001)     ;
(PID.TID 0000.0001) viscA4Max =   /* Maximum biharmonic viscosity ( m^2/s ) */
(PID.TID 0000.0001)                 1.000000000000000E+21
(PID.TID 0000.0001)     ;
(PID.TID 0000.0001) viscA4Grid =   /* Grid dependent biharmonic viscosity ( non-dim. ) */
(PID.TID 0000.0001)                 0.000000000000000E+00
(PID.TID 0000.0001)     ;
(PID.TID 0000.0001) viscC4leith = /* Leith biharm viscosity factor (on grad(vort), non-dim.) */
(PID.TID 0000.0001)                 0.000000000000000E+00
(PID.TID 0000.0001)     ;
(PID.TID 0000.0001) viscC4leithD = /* Leith biharm viscosity factor (on grad(div), non-dim.) */
(PID.TID 0000.0001)                 0.000000000000000E+00
(PID.TID 0000.0001)     ;
(PID.TID 0000.0001) viscC4Smag = /* Smagorinsky biharm viscosity factor (non-dim) */
(PID.TID 0000.0001)                 0.000000000000000E+00
(PID.TID 0000.0001)     ;
(PID.TID 0000.0001) no_slip_sides =  /* Viscous BCs: No-slip sides */
(PID.TID 0000.0001)                   F
(PID.TID 0000.0001)     ;
(PID.TID 0000.0001) sideDragFactor = /* side-drag scaling factor (non-dim) */
(PID.TID 0000.0001)                 2.000000000000000E+00
(PID.TID 0000.0001)     ;
(PID.TID 0000.0001) viscAr =   /* Vertical eddy viscosity ( units of r^2/s ) */
(PID.TID 0000.0001)                 5.000000000000000E-06
(PID.TID 0000.0001)     ;
(PID.TID 0000.0001) no_slip_bottom =  /* Viscous BCs: No-slip bottom */
(PID.TID 0000.0001)                   F
(PID.TID 0000.0001)     ;
(PID.TID 0000.0001) bottomDragLinear = /* linear bottom-drag coefficient ( 1/s ) */
(PID.TID 0000.0001)                 0.000000000000000E+00
(PID.TID 0000.0001)     ;
(PID.TID 0000.0001) bottomDragQuadratic = /* quadratic bottom-drag coeff. ( 1/m ) */
(PID.TID 0000.0001)                 0.000000000000000E+00
(PID.TID 0000.0001)     ;
(PID.TID 0000.0001) diffKhT =   /* Laplacian diffusion of heat laterally ( m^2/s ) */
(PID.TID 0000.0001)                 2.500000000000000E-06
(PID.TID 0000.0001)     ;
(PID.TID 0000.0001) diffK4T =   /* Bihaarmonic diffusion of heat laterally ( m^4/s ) */
(PID.TID 0000.0001)                 0.000000000000000E+00
(PID.TID 0000.0001)     ;
(PID.TID 0000.0001) diffKhS =   /* Laplacian diffusion of salt laterally ( m^2/s ) */
(PID.TID 0000.0001)                 1.000000000000000E-06
(PID.TID 0000.0001)     ;
(PID.TID 0000.0001) diffK4S =   /* Bihaarmonic diffusion of salt laterally ( m^4/s ) */
(PID.TID 0000.0001)                 0.000000000000000E+00
(PID.TID 0000.0001)     ;
(PID.TID 0000.0001) diffKrNrT = /* vertical profile of vertical diffusion of Temp ( m^2/s )*/
(PID.TID 0000.0001)    29 @  2.500000000000000E-06              /* K =  1: 29 */
(PID.TID 0000.0001)     ;
(PID.TID 0000.0001) diffKrNrS = /* vertical profile of vertical diffusion of Salt ( m^2/s )*/
(PID.TID 0000.0001)    29 @  1.000000000000000E-06              /* K =  1: 29 */
(PID.TID 0000.0001)     ;
(PID.TID 0000.0001) diffKrBL79surf =   /* Surface diffusion for Bryan and Lewis 1979 ( m^2/s ) */
(PID.TID 0000.0001)                 0.000000000000000E+00
(PID.TID 0000.0001)     ;
(PID.TID 0000.0001) diffKrBL79deep =   /* Deep diffusion for Bryan and Lewis 1979 ( m^2/s ) */
(PID.TID 0000.0001)                 0.000000000000000E+00
(PID.TID 0000.0001)     ;
(PID.TID 0000.0001) diffKrBL79scl =   /* Depth scale for Bryan and Lewis 1979 ( m ) */
(PID.TID 0000.0001)                 2.000000000000000E+02
(PID.TID 0000.0001)     ;
(PID.TID 0000.0001) diffKrBL79Ho =   /* Turning depth for Bryan and Lewis 1979 ( m ) */
(PID.TID 0000.0001)                -2.000000000000000E+03
(PID.TID 0000.0001)     ;
(PID.TID 0000.0001) Equation of State : eosType = LINEAR ;
(PID.TID 0000.0001) tAlpha =   /* Linear EOS thermal expansion coefficient ( 1/oC ) */
(PID.TID 0000.0001)                 2.000000000000000E-04
(PID.TID 0000.0001)     ;
(PID.TID 0000.0001) sBeta =   /* Linear EOS haline contraction coefficient ( 1/psu ) */
(PID.TID 0000.0001)                 0.000000000000000E+00
(PID.TID 0000.0001)     ;
(PID.TID 0000.0001) rhonil =   /* Reference density ( kg/m^3 ) */
(PID.TID 0000.0001)                 1.000000000000000E+03
(PID.TID 0000.0001)     ;
(PID.TID 0000.0001) rhoConst =   /* Reference density ( kg/m^3 ) */
(PID.TID 0000.0001)                 1.000000000000000E+03
(PID.TID 0000.0001)     ;
(PID.TID 0000.0001) rhoConstFresh =   /* Reference density ( kg/m^3 ) */
(PID.TID 0000.0001)                 1.000000000000000E+03
(PID.TID 0000.0001)     ;
(PID.TID 0000.0001) gravity =   /* Gravitational acceleration ( m/s^2 ) */
(PID.TID 0000.0001)                 9.810000000000000E+00
(PID.TID 0000.0001)     ;
(PID.TID 0000.0001) gBaro =   /* Barotropic gravity ( m/s^2 ) */
(PID.TID 0000.0001)                 9.810000000000000E+00
(PID.TID 0000.0001)     ;
(PID.TID 0000.0001) rotationPeriod =   /* Rotation Period ( s ) */
(PID.TID 0000.0001)                 8.616400000000000E+04
(PID.TID 0000.0001)     ;
(PID.TID 0000.0001) omega =   /* Angular velocity ( rad/s ) */
(PID.TID 0000.0001)                 7.292123516990375E-05
(PID.TID 0000.0001)     ;
(PID.TID 0000.0001) f0 =   /* Reference coriolis parameter ( 1/s ) */
(PID.TID 0000.0001)                 5.000000000000000E-01
(PID.TID 0000.0001)     ;
(PID.TID 0000.0001) beta =   /* Beta ( 1/(m.s) ) */
(PID.TID 0000.0001)                 9.999999999999999E-12
(PID.TID 0000.0001)     ;
(PID.TID 0000.0001) freeSurfFac =   /* Implicit free surface factor */
(PID.TID 0000.0001)                 0.000000000000000E+00
(PID.TID 0000.0001)     ;
(PID.TID 0000.0001) implicitFreeSurface =   /* Implicit free surface on/off flag */
(PID.TID 0000.0001)                   F
(PID.TID 0000.0001)     ;
(PID.TID 0000.0001) rigidLid =   /* Rigid lid on/off flag */
(PID.TID 0000.0001)                   T
(PID.TID 0000.0001)     ;
(PID.TID 0000.0001) implicSurfPress =   /* Surface Pressure implicit factor (0-1)*/
(PID.TID 0000.0001)                 1.000000000000000E+00
(PID.TID 0000.0001)     ;
(PID.TID 0000.0001) implicDiv2Dflow =   /* Barot. Flow Div. implicit factor (0-1)*/
(PID.TID 0000.0001)                 1.000000000000000E+00
(PID.TID 0000.0001)     ;
(PID.TID 0000.0001) exactConserv =   /* Exact Volume Conservation on/off flag*/
(PID.TID 0000.0001)                   F
(PID.TID 0000.0001)     ;
(PID.TID 0000.0001) uniformLin_PhiSurf =   /* use uniform Bo_surf on/off flag*/
(PID.TID 0000.0001)                   T
(PID.TID 0000.0001)     ;
(PID.TID 0000.0001) nonlinFreeSurf =   /* Non-linear Free Surf. options (-1,0,1,2,3)*/
(PID.TID 0000.0001)                       0
(PID.TID 0000.0001)     ;
(PID.TID 0000.0001)      -1,0= Off ; 1,2,3= On, 2=+rescale gU,gV, 3=+update cg2d solv.
(PID.TID 0000.0001) hFacInf =   /* lower threshold for hFac (nonlinFreeSurf only)*/
(PID.TID 0000.0001)                 2.000000000000000E-01
(PID.TID 0000.0001)     ;
(PID.TID 0000.0001) hFacSup =   /* upper threshold for hFac (nonlinFreeSurf only)*/
(PID.TID 0000.0001)                 2.000000000000000E+00
(PID.TID 0000.0001)     ;
(PID.TID 0000.0001) select_rStar =   /* r* Coordinate options (not yet implemented)*/
(PID.TID 0000.0001)                       0
(PID.TID 0000.0001)     ;
(PID.TID 0000.0001) useRealFreshWaterFlux =   /* Real Fresh Water Flux on/off flag*/
(PID.TID 0000.0001)                   F
(PID.TID 0000.0001)     ;
(PID.TID 0000.0001) convertFW2Salt = /* convert F.W. Flux to Salt Flux (-1=use local S)(ppt)*/
(PID.TID 0000.0001)                 3.500000000000000E+01
(PID.TID 0000.0001)     ;
(PID.TID 0000.0001) use3Dsolver = /* use 3-D pressure solver on/off flag */
(PID.TID 0000.0001)                   T
(PID.TID 0000.0001)     ;
(PID.TID 0000.0001) nonHydrostatic =  /* Non-Hydrostatic on/off flag */
(PID.TID 0000.0001)                   T
(PID.TID 0000.0001)     ;
(PID.TID 0000.0001) nh_Am2 = /* Non-Hydrostatic terms scaling factor */
(PID.TID 0000.0001)                 1.000000000000000E+00
(PID.TID 0000.0001)     ;
(PID.TID 0000.0001) quasiHydrostatic = /* Quasi-Hydrostatic on/off flag */
(PID.TID 0000.0001)                   F
(PID.TID 0000.0001)     ;
(PID.TID 0000.0001) momStepping =  /* Momentum equation on/off flag */
(PID.TID 0000.0001)                   T
(PID.TID 0000.0001)     ;
(PID.TID 0000.0001) vectorInvariantMomentum= /* Vector-Invariant Momentum on/off */
(PID.TID 0000.0001)                   F
(PID.TID 0000.0001)     ;
(PID.TID 0000.0001) momAdvection =  /* Momentum advection on/off flag */
(PID.TID 0000.0001)                   T
(PID.TID 0000.0001)     ;
(PID.TID 0000.0001) momViscosity =  /* Momentum viscosity on/off flag */
(PID.TID 0000.0001)                   T
(PID.TID 0000.0001)     ;
(PID.TID 0000.0001) momImplVertAdv =/* Momentum implicit vert. advection on/off*/
(PID.TID 0000.0001)                   F
(PID.TID 0000.0001)     ;
(PID.TID 0000.0001) implicitViscosity = /* Implicit viscosity on/off flag */
(PID.TID 0000.0001)                   F
(PID.TID 0000.0001)     ;
(PID.TID 0000.0001) metricTerms =  /* metric-Terms on/off flag */
(PID.TID 0000.0001)                   T
(PID.TID 0000.0001)     ;
(PID.TID 0000.0001) useNHMTerms = /* Non-Hydrostatic Metric-Terms on/off */
(PID.TID 0000.0001)                   F
(PID.TID 0000.0001)     ;
(PID.TID 0000.0001) useCoriolis =  /* Coriolis on/off flag */
(PID.TID 0000.0001)                   T
(PID.TID 0000.0001)     ;
(PID.TID 0000.0001) useCDscheme =  /* CD scheme on/off flag */
(PID.TID 0000.0001)                   F
(PID.TID 0000.0001)     ;
(PID.TID 0000.0001) useJamartWetPoints= /* Coriolis WetPoints method flag */
(PID.TID 0000.0001)                   F
(PID.TID 0000.0001)     ;
(PID.TID 0000.0001) useJamartMomAdv= /* V.I. Non-linear terms Jamart flag */
(PID.TID 0000.0001)                   F
(PID.TID 0000.0001)     ;
(PID.TID 0000.0001) SadournyCoriolis= /* Sadourny Coriolis discr. flag */
(PID.TID 0000.0001)                   F
(PID.TID 0000.0001)     ;
(PID.TID 0000.0001) upwindVorticity= /* Upwind bias vorticity flag */
(PID.TID 0000.0001)                   F
(PID.TID 0000.0001)     ;
(PID.TID 0000.0001) useAbsVorticity= /* Work with f+zeta in Coriolis */
(PID.TID 0000.0001)                   F
(PID.TID 0000.0001)     ;
(PID.TID 0000.0001) highOrderVorticity= /* High order interp. of vort. flag */
(PID.TID 0000.0001)                   F
(PID.TID 0000.0001)     ;
(PID.TID 0000.0001) upwindShear= /* Upwind vertical Shear advection flag */
(PID.TID 0000.0001)                   F
(PID.TID 0000.0001)     ;
(PID.TID 0000.0001) selectKEscheme= /* Kinetic Energy scheme selector */
(PID.TID 0000.0001)                       0
(PID.TID 0000.0001)     ;
(PID.TID 0000.0001) momForcing =  /* Momentum forcing on/off flag */
(PID.TID 0000.0001)                   T
(PID.TID 0000.0001)     ;
(PID.TID 0000.0001) momPressureForcing =  /* Momentum pressure term on/off flag */
(PID.TID 0000.0001)                   T
(PID.TID 0000.0001)     ;
(PID.TID 0000.0001) implicitIntGravWave= /* Implicit Internal Gravity Wave flag */
(PID.TID 0000.0001)                   F
(PID.TID 0000.0001)     ;
(PID.TID 0000.0001) staggerTimeStep =   /* Stagger time stepping on/off flag */
(PID.TID 0000.0001)                   F
(PID.TID 0000.0001)     ;
(PID.TID 0000.0001) multiDimAdvection =   /* enable/disable Multi-Dim Advection */
(PID.TID 0000.0001)                   T
(PID.TID 0000.0001)     ;
(PID.TID 0000.0001) useMultiDimAdvec =   /* Multi-Dim Advection is/is-not used */
(PID.TID 0000.0001)                   F
(PID.TID 0000.0001)     ;
(PID.TID 0000.0001) implicitDiffusion =/* Implicit Diffusion on/off flag */
(PID.TID 0000.0001)                   F
(PID.TID 0000.0001)     ;
(PID.TID 0000.0001) tempStepping =  /* Temperature equation on/off flag */
(PID.TID 0000.0001)                   T
(PID.TID 0000.0001)     ;
(PID.TID 0000.0001) tempAdvection=  /* Temperature advection on/off flag */
(PID.TID 0000.0001)                   T
(PID.TID 0000.0001)     ;
(PID.TID 0000.0001) tempImplVertAdv =/* Temp. implicit vert. advection on/off */
(PID.TID 0000.0001)                   F
(PID.TID 0000.0001)     ;
(PID.TID 0000.0001) tempForcing  =  /* Temperature forcing on/off flag */
(PID.TID 0000.0001)                   T
(PID.TID 0000.0001)     ;
(PID.TID 0000.0001) saltStepping =  /* Salinity equation on/off flag */
(PID.TID 0000.0001)                   T
(PID.TID 0000.0001)     ;
(PID.TID 0000.0001) saltAdvection=  /* Salinity advection on/off flag */
(PID.TID 0000.0001)                   T
(PID.TID 0000.0001)     ;
(PID.TID 0000.0001) saltImplVertAdv =/* Sali. implicit vert. advection on/off */
(PID.TID 0000.0001)                   F
(PID.TID 0000.0001)     ;
(PID.TID 0000.0001) saltForcing  =  /* Salinity forcing on/off flag */
(PID.TID 0000.0001)                   T
(PID.TID 0000.0001)     ;
(PID.TID 0000.0001)  readBinaryPrec = /* Precision used for reading binary files */
(PID.TID 0000.0001)                      32
(PID.TID 0000.0001)     ;
(PID.TID 0000.0001) writeBinaryPrec = /* Precision used for writing binary files */
(PID.TID 0000.0001)                      32
(PID.TID 0000.0001)     ;
(PID.TID 0000.0001)  globalFiles = /* write "global" (=not per tile) files */
(PID.TID 0000.0001)                   F
(PID.TID 0000.0001)     ;
(PID.TID 0000.0001)  useSingleCpuIO = /* only master MPI process does I/O */
(PID.TID 0000.0001)                   F
(PID.TID 0000.0001)     ;
(PID.TID 0000.0001)  debugMode  =  /* Debug Mode on/off flag */
(PID.TID 0000.0001)                   F
(PID.TID 0000.0001)     ;
(PID.TID 0000.0001)    debLevA  =  /* 1rst level of debugging */
(PID.TID 0000.0001)                       1
(PID.TID 0000.0001)     ;
(PID.TID 0000.0001)    debLevB  =  /* 2nd  level of debugging */
(PID.TID 0000.0001)                       2
(PID.TID 0000.0001)     ;
(PID.TID 0000.0001)  debugLevel =  /* select debugging level */
(PID.TID 0000.0001)                       1
(PID.TID 0000.0001)     ;
(PID.TID 0000.0001) //
(PID.TID 0000.0001) // Elliptic solver(s) paramters ( PARM02 in namelist )
(PID.TID 0000.0001) //
(PID.TID 0000.0001) cg2dMaxIters =   /* Upper limit on 2d con. grad iterations  */
(PID.TID 0000.0001)                    1000
(PID.TID 0000.0001)     ;
(PID.TID 0000.0001) cg2dChkResFreq =   /* 2d con. grad convergence test frequency */
(PID.TID 0000.0001)                       1
(PID.TID 0000.0001)     ;
(PID.TID 0000.0001) cg2dTargetResidual =   /* 2d con. grad target residual  */
(PID.TID 0000.0001)                 1.000000000000000E-07
(PID.TID 0000.0001)     ;
(PID.TID 0000.0001) cg2dTargetResWunit =   /* CG2d target residual [W units] */
(PID.TID 0000.0001)                -1.000000000000000E+00
(PID.TID 0000.0001)     ;
(PID.TID 0000.0001) cg2dPreCondFreq =   /* Freq. for updating cg2d preconditioner */
(PID.TID 0000.0001)                       1
(PID.TID 0000.0001)     ;
(PID.TID 0000.0001) //
(PID.TID 0000.0001) // Time stepping paramters ( PARM03 in namelist )
(PID.TID 0000.0001) //
(PID.TID 0000.0001) nIter0 =   /* Run starting timestep number  */
(PID.TID 0000.0001)                       0
(PID.TID 0000.0001)     ;
(PID.TID 0000.0001) nTimeSteps =   /* Number of timesteps */
(PID.TID 0000.0001)                      20
(PID.TID 0000.0001)     ;
(PID.TID 0000.0001) deltaTmom =   /* Momentum equation timestep ( s ) */
(PID.TID 0000.0001)                 1.000000000000000E-01
(PID.TID 0000.0001)     ;
(PID.TID 0000.0001) deltaTfreesurf =   /* FreeSurface equation timestep ( s ) */
(PID.TID 0000.0001)                 1.000000000000000E-01
(PID.TID 0000.0001)     ;
(PID.TID 0000.0001) dTtracerLev =   /* Tracer equation timestep ( s ) */
(PID.TID 0000.0001)    29 @  1.000000000000000E-01              /* K =  1: 29 */
(PID.TID 0000.0001)     ;
(PID.TID 0000.0001) deltaTClock  =   /* Model clock timestep ( s ) */
(PID.TID 0000.0001)                 1.000000000000000E-01
(PID.TID 0000.0001)     ;
(PID.TID 0000.0001) cAdjFreq =   /* Convective adjustment interval ( s ) */
(PID.TID 0000.0001)                 0.000000000000000E+00
(PID.TID 0000.0001)     ;
(PID.TID 0000.0001) momForcingOutAB = /* =1: take Momentum Forcing out of Adams-Bash. stepping */
(PID.TID 0000.0001)                       0
(PID.TID 0000.0001)     ;
(PID.TID 0000.0001) tracForcingOutAB = /* =1: take T,S,pTr Forcing out of Adams-Bash. stepping */
(PID.TID 0000.0001)                       0
(PID.TID 0000.0001)     ;
(PID.TID 0000.0001) momDissip_In_AB = /* put Dissipation Tendency in Adams-Bash. stepping */
(PID.TID 0000.0001)                   T
(PID.TID 0000.0001)     ;
(PID.TID 0000.0001) doAB_onGtGs = /* apply AB on Tendencies (rather than on T,S)*/
(PID.TID 0000.0001)                   T
(PID.TID 0000.0001)     ;
(PID.TID 0000.0001) abEps =   /* Adams-Bashforth-2 stabilizing weight */
(PID.TID 0000.0001)                 1.000000000000000E-01
(PID.TID 0000.0001)     ;
(PID.TID 0000.0001) baseTime =   /* Model base time ( s ). */
(PID.TID 0000.0001)                 0.000000000000000E+00
(PID.TID 0000.0001)     ;
(PID.TID 0000.0001) startTime =   /* Run start time ( s ). */
(PID.TID 0000.0001)                 0.000000000000000E+00
(PID.TID 0000.0001)     ;
(PID.TID 0000.0001) endTime =   /* Integration ending time ( s ). */
(PID.TID 0000.0001)                 2.000000000000000E+00
(PID.TID 0000.0001)     ;
(PID.TID 0000.0001) pChkPtFreq =   /* Permanent restart/checkpoint file interval ( s ). */
(PID.TID 0000.0001)                 2.000000000000000E+00
(PID.TID 0000.0001)     ;
(PID.TID 0000.0001) chkPtFreq =   /* Rolling restart/checkpoint file interval ( s ). */
(PID.TID 0000.0001)                 2.000000000000000E+00
(PID.TID 0000.0001)     ;
(PID.TID 0000.0001) pickup_write_mdsio =   /* Model IO flag. */
(PID.TID 0000.0001)                   F
(PID.TID 0000.0001)     ;
(PID.TID 0000.0001) pickup_read_mdsio =   /* Model IO flag. */
(PID.TID 0000.0001)                   F
(PID.TID 0000.0001)     ;
(PID.TID 0000.0001) pickup_write_mnc =   /* Model IO flag. */
(PID.TID 0000.0001)                   T
(PID.TID 0000.0001)     ;
(PID.TID 0000.0001) pickup_read_mnc =   /* Model IO flag. */
(PID.TID 0000.0001)                   T
(PID.TID 0000.0001)     ;
(PID.TID 0000.0001) pickup_write_immed =   /* Model IO flag. */
(PID.TID 0000.0001)                   F
(PID.TID 0000.0001)     ;
(PID.TID 0000.0001) dumpFreq =   /* Model state write out interval ( s ). */
(PID.TID 0000.0001)                 2.000000000000000E+00
(PID.TID 0000.0001)     ;
(PID.TID 0000.0001) dumpInitAndLast= /* write out Initial & Last iter. model state */
(PID.TID 0000.0001)                   T
(PID.TID 0000.0001)     ;
(PID.TID 0000.0001) snapshot_mdsio =   /* Model IO flag. */
(PID.TID 0000.0001)                   F
(PID.TID 0000.0001)     ;
(PID.TID 0000.0001) snapshot_mnc =   /* Model IO flag. */
(PID.TID 0000.0001)                   T
(PID.TID 0000.0001)     ;
(PID.TID 0000.0001) monitorFreq =   /* Monitor output interval ( s ). */
(PID.TID 0000.0001)                 1.000000000000000E-01
(PID.TID 0000.0001)     ;
(PID.TID 0000.0001) monitor_stdio =   /* Model IO flag. */
(PID.TID 0000.0001)                   T
(PID.TID 0000.0001)     ;
(PID.TID 0000.0001) monitor_mnc =   /* Model IO flag. */
(PID.TID 0000.0001)                   F
(PID.TID 0000.0001)     ;
(PID.TID 0000.0001) externForcingPeriod =   /* forcing period (s) */
(PID.TID 0000.0001)                 0.000000000000000E+00
(PID.TID 0000.0001)     ;
(PID.TID 0000.0001) externForcingCycle =   /* period of the cyle (s). */
(PID.TID 0000.0001)                 0.000000000000000E+00
(PID.TID 0000.0001)     ;
(PID.TID 0000.0001) tauThetaClimRelax =   /* relaxation time scale (s) */
(PID.TID 0000.0001)                 0.000000000000000E+00
(PID.TID 0000.0001)     ;
(PID.TID 0000.0001) tauSaltClimRelax =   /* relaxation time scale (s) */
(PID.TID 0000.0001)                 0.000000000000000E+00
(PID.TID 0000.0001)     ;
(PID.TID 0000.0001) latBandClimRelax =   /* max. Lat. where relaxation */
(PID.TID 0000.0001)                 9.300000000000004E-01
(PID.TID 0000.0001)     ;
(PID.TID 0000.0001) //
(PID.TID 0000.0001) // Gridding paramters ( PARM04 in namelist )
(PID.TID 0000.0001) //
(PID.TID 0000.0001) usingCartesianGrid =   /* Cartesian coordinates flag ( True / False ) */
(PID.TID 0000.0001)                   F
(PID.TID 0000.0001)     ;
(PID.TID 0000.0001) usingSphericalPolarGrid =   /* Spherical coordinates flag ( True / False ) */
(PID.TID 0000.0001)                   F
(PID.TID 0000.0001)     ;
(PID.TID 0000.0001) usingCylindricalGrid =   /* Spherical coordinates flag ( True / False ) */
(PID.TID 0000.0001)                   T
(PID.TID 0000.0001)     ;
(PID.TID 0000.0001) Ro_SeaLevel =   /* r(1) ( units of r ) */
(PID.TID 0000.0001)                 0.000000000000000E+00
(PID.TID 0000.0001)     ;
(PID.TID 0000.0001) rkSign =   /* index orientation relative to vertical coordinate */
(PID.TID 0000.0001)                -1.000000000000000E+00
(PID.TID 0000.0001)     ;
(PID.TID 0000.0001) horiVertRatio =   /* Ratio on units : Horiz - Vertical */
(PID.TID 0000.0001)                 1.000000000000000E+00
(PID.TID 0000.0001)     ;
(PID.TID 0000.0001) drC =   /* C spacing ( units of r ) */
(PID.TID 0000.0001)                 2.500000000000000E-03,      /* K =  1 */
(PID.TID 0000.0001)    28 @  5.000000000000000E-03              /* K =  2: 29 */
(PID.TID 0000.0001)     ;
(PID.TID 0000.0001) drF =   /* W spacing ( units of r ) */
(PID.TID 0000.0001)    29 @  5.000000000000000E-03              /* K =  1: 29 */
(PID.TID 0000.0001)     ;
(PID.TID 0000.0001) delX =   /* U spacing ( m - cartesian, degrees - spherical ) */
(PID.TID 0000.0001)   120 @  3.000000000000000E+00              /* I =  1:120 */
(PID.TID 0000.0001)     ;
(PID.TID 0000.0001) delY =   /* V spacing ( m - cartesian, degrees - spherical ) */
(PID.TID 0000.0001)    31 @  1.000000000000000E-02              /* J =  1: 31 */
(PID.TID 0000.0001)     ;
(PID.TID 0000.0001) phiMin =    /* South edge (ignored - cartesian, degrees - spherical ) */
(PID.TID 0000.0001)                 0.000000000000000E+00
(PID.TID 0000.0001)     ;
(PID.TID 0000.0001) thetaMin =    /* West edge ( ignored - cartesian, degrees - spherical ) */
(PID.TID 0000.0001)                 0.000000000000000E+00
(PID.TID 0000.0001)     ;
(PID.TID 0000.0001) rSphere =    /* Radius ( ignored - cartesian, m - spherical ) */
(PID.TID 0000.0001)                 6.370000000000000E+06
(PID.TID 0000.0001)     ;
(PID.TID 0000.0001) xcoord =   /* P-point X coord ( m - cartesian, degrees - spherical ) */
(PID.TID 0000.0001)                 1.500000000000000E+00,      /* I =  1 */
(PID.TID 0000.0001)                 4.500000000000000E+00,      /* I =  2 */
(PID.TID 0000.0001)                 7.500000000000000E+00,      /* I =  3 */
(PID.TID 0000.0001)                 1.050000000000000E+01,      /* I =  4 */
(PID.TID 0000.0001)                 1.350000000000000E+01,      /* I =  5 */
(PID.TID 0000.0001)                 1.650000000000000E+01,      /* I =  6 */
(PID.TID 0000.0001)                 1.950000000000000E+01,      /* I =  7 */
(PID.TID 0000.0001)                 2.250000000000000E+01,      /* I =  8 */
(PID.TID 0000.0001)                 2.550000000000000E+01,      /* I =  9 */
(PID.TID 0000.0001)                 2.850000000000000E+01,      /* I = 10 */
(PID.TID 0000.0001)                 3.150000000000000E+01,      /* I = 11 */
(PID.TID 0000.0001)                 3.450000000000000E+01,      /* I = 12 */
(PID.TID 0000.0001)                 3.750000000000000E+01,      /* I = 13 */
(PID.TID 0000.0001)                 4.050000000000000E+01,      /* I = 14 */
(PID.TID 0000.0001)                 4.350000000000000E+01,      /* I = 15 */
(PID.TID 0000.0001)                 4.650000000000000E+01,      /* I = 16 */
(PID.TID 0000.0001)                 4.950000000000000E+01,      /* I = 17 */
(PID.TID 0000.0001)                 5.250000000000000E+01,      /* I = 18 */
(PID.TID 0000.0001)                 5.550000000000000E+01,      /* I = 19 */
(PID.TID 0000.0001)                 5.850000000000000E+01,      /* I = 20 */
(PID.TID 0000.0001)                 6.150000000000000E+01,      /* I = 21 */
(PID.TID 0000.0001)                 6.450000000000000E+01,      /* I = 22 */
(PID.TID 0000.0001)                 6.750000000000000E+01,      /* I = 23 */
(PID.TID 0000.0001)                 7.050000000000000E+01,      /* I = 24 */
(PID.TID 0000.0001)                 7.350000000000000E+01,      /* I = 25 */
(PID.TID 0000.0001)                 7.650000000000000E+01,      /* I = 26 */
(PID.TID 0000.0001)                 7.950000000000000E+01,      /* I = 27 */
(PID.TID 0000.0001)                 8.250000000000000E+01,      /* I = 28 */
(PID.TID 0000.0001)                 8.550000000000000E+01,      /* I = 29 */
(PID.TID 0000.0001)                 8.850000000000000E+01,      /* I = 30 */
(PID.TID 0000.0001)                 9.150000000000000E+01,      /* I = 31 */
(PID.TID 0000.0001)                 9.450000000000000E+01,      /* I = 32 */
(PID.TID 0000.0001)                 9.750000000000000E+01,      /* I = 33 */
(PID.TID 0000.0001)                 1.005000000000000E+02,      /* I = 34 */
(PID.TID 0000.0001)                 1.035000000000000E+02,      /* I = 35 */
(PID.TID 0000.0001)                 1.065000000000000E+02,      /* I = 36 */
(PID.TID 0000.0001)                 1.095000000000000E+02,      /* I = 37 */
(PID.TID 0000.0001)                 1.125000000000000E+02,      /* I = 38 */
(PID.TID 0000.0001)                 1.155000000000000E+02,      /* I = 39 */
(PID.TID 0000.0001)                 1.185000000000000E+02,      /* I = 40 */
(PID.TID 0000.0001)                 1.215000000000000E+02,      /* I = 41 */
(PID.TID 0000.0001)                 1.245000000000000E+02,      /* I = 42 */
(PID.TID 0000.0001)                 1.275000000000000E+02,      /* I = 43 */
(PID.TID 0000.0001)                 1.305000000000000E+02,      /* I = 44 */
(PID.TID 0000.0001)                 1.335000000000000E+02,      /* I = 45 */
(PID.TID 0000.0001)                 1.365000000000000E+02,      /* I = 46 */
(PID.TID 0000.0001)                 1.395000000000000E+02,      /* I = 47 */
(PID.TID 0000.0001)                 1.425000000000000E+02,      /* I = 48 */
(PID.TID 0000.0001)                 1.455000000000000E+02,      /* I = 49 */
(PID.TID 0000.0001)                 1.485000000000000E+02,      /* I = 50 */
(PID.TID 0000.0001)                 1.515000000000000E+02,      /* I = 51 */
(PID.TID 0000.0001)                 1.545000000000000E+02,      /* I = 52 */
(PID.TID 0000.0001)                 1.575000000000000E+02,      /* I = 53 */
(PID.TID 0000.0001)                 1.605000000000000E+02,      /* I = 54 */
(PID.TID 0000.0001)                 1.635000000000000E+02,      /* I = 55 */
(PID.TID 0000.0001)                 1.665000000000000E+02,      /* I = 56 */
(PID.TID 0000.0001)                 1.695000000000000E+02,      /* I = 57 */
(PID.TID 0000.0001)                 1.725000000000000E+02,      /* I = 58 */
(PID.TID 0000.0001)                 1.755000000000000E+02,      /* I = 59 */
(PID.TID 0000.0001)                 1.785000000000000E+02,      /* I = 60 */
(PID.TID 0000.0001)                 1.815000000000000E+02,      /* I = 61 */
(PID.TID 0000.0001)                 1.845000000000000E+02,      /* I = 62 */
(PID.TID 0000.0001)                 1.875000000000000E+02,      /* I = 63 */
(PID.TID 0000.0001)                 1.905000000000000E+02,      /* I = 64 */
(PID.TID 0000.0001)                 1.935000000000000E+02,      /* I = 65 */
(PID.TID 0000.0001)                 1.965000000000000E+02,      /* I = 66 */
(PID.TID 0000.0001)                 1.995000000000000E+02,      /* I = 67 */
(PID.TID 0000.0001)                 2.025000000000000E+02,      /* I = 68 */
(PID.TID 0000.0001)                 2.055000000000000E+02,      /* I = 69 */
(PID.TID 0000.0001)                 2.085000000000000E+02,      /* I = 70 */
(PID.TID 0000.0001)                 2.115000000000000E+02,      /* I = 71 */
(PID.TID 0000.0001)                 2.145000000000000E+02,      /* I = 72 */
(PID.TID 0000.0001)                 2.175000000000000E+02,      /* I = 73 */
(PID.TID 0000.0001)                 2.205000000000000E+02,      /* I = 74 */
(PID.TID 0000.0001)                 2.235000000000000E+02,      /* I = 75 */
(PID.TID 0000.0001)                 2.265000000000000E+02,      /* I = 76 */
(PID.TID 0000.0001)                 2.295000000000000E+02,      /* I = 77 */
(PID.TID 0000.0001)                 2.325000000000000E+02,      /* I = 78 */
(PID.TID 0000.0001)                 2.355000000000000E+02,      /* I = 79 */
(PID.TID 0000.0001)                 2.385000000000000E+02,      /* I = 80 */
(PID.TID 0000.0001)                 2.415000000000000E+02,      /* I = 81 */
(PID.TID 0000.0001)                 2.445000000000000E+02,      /* I = 82 */
(PID.TID 0000.0001)                 2.475000000000000E+02,      /* I = 83 */
(PID.TID 0000.0001)                 2.505000000000000E+02,      /* I = 84 */
(PID.TID 0000.0001)                 2.535000000000000E+02,      /* I = 85 */
(PID.TID 0000.0001)                 2.565000000000000E+02,      /* I = 86 */
(PID.TID 0000.0001)                 2.595000000000000E+02,      /* I = 87 */
(PID.TID 0000.0001)                 2.625000000000000E+02,      /* I = 88 */
(PID.TID 0000.0001)                 2.655000000000000E+02,      /* I = 89 */
(PID.TID 0000.0001)                 2.685000000000000E+02,      /* I = 90 */
(PID.TID 0000.0001)                 2.715000000000000E+02,      /* I = 91 */
(PID.TID 0000.0001)                 2.745000000000000E+02,      /* I = 92 */
(PID.TID 0000.0001)                 2.775000000000000E+02,      /* I = 93 */
(PID.TID 0000.0001)                 2.805000000000000E+02,      /* I = 94 */
(PID.TID 0000.0001)                 2.835000000000000E+02,      /* I = 95 */
(PID.TID 0000.0001)                 2.865000000000000E+02,      /* I = 96 */
(PID.TID 0000.0001)                 2.895000000000000E+02,      /* I = 97 */
(PID.TID 0000.0001)                 2.925000000000000E+02,      /* I = 98 */
(PID.TID 0000.0001)                 2.955000000000000E+02,      /* I = 99 */
(PID.TID 0000.0001)                 2.985000000000000E+02,      /* I =100 */
(PID.TID 0000.0001)                 3.015000000000000E+02,      /* I =101 */
(PID.TID 0000.0001)                 3.045000000000000E+02,      /* I =102 */
(PID.TID 0000.0001)                 3.075000000000000E+02,      /* I =103 */
(PID.TID 0000.0001)                 3.105000000000000E+02,      /* I =104 */
(PID.TID 0000.0001)                 3.135000000000000E+02,      /* I =105 */
(PID.TID 0000.0001)                 3.165000000000000E+02,      /* I =106 */
(PID.TID 0000.0001)                 3.195000000000000E+02,      /* I =107 */
(PID.TID 0000.0001)                 3.225000000000000E+02,      /* I =108 */
(PID.TID 0000.0001)                 3.255000000000000E+02,      /* I =109 */
(PID.TID 0000.0001)                 3.285000000000000E+02,      /* I =110 */
(PID.TID 0000.0001)                 3.315000000000000E+02,      /* I =111 */
(PID.TID 0000.0001)                 3.345000000000000E+02,      /* I =112 */
(PID.TID 0000.0001)                 3.375000000000000E+02,      /* I =113 */
(PID.TID 0000.0001)                 3.405000000000000E+02,      /* I =114 */
(PID.TID 0000.0001)                 3.435000000000000E+02,      /* I =115 */
(PID.TID 0000.0001)                 3.465000000000000E+02,      /* I =116 */
(PID.TID 0000.0001)                 3.495000000000000E+02,      /* I =117 */
(PID.TID 0000.0001)                 3.525000000000000E+02,      /* I =118 */
(PID.TID 0000.0001)                 3.555000000000000E+02,      /* I =119 */
(PID.TID 0000.0001)                 3.585000000000000E+02       /* I =120 */
(PID.TID 0000.0001)     ;
(PID.TID 0000.0001) ycoord =   /* P-point Y coord ( m - cartesian, degrees - spherical ) */
(PID.TID 0000.0001)                 5.000000000000004E-03,      /* J =  1 */
(PID.TID 0000.0001)                 1.500000000000000E-02,      /* J =  2 */
(PID.TID 0000.0001)                 2.500000000000000E-02,      /* J =  3 */
(PID.TID 0000.0001)                 3.500000000000000E-02,      /* J =  4 */
(PID.TID 0000.0001)                 4.500000000000001E-02,      /* J =  5 */
(PID.TID 0000.0001)                 5.500000000000001E-02,      /* J =  6 */
(PID.TID 0000.0001)                 6.500000000000000E-02,      /* J =  7 */
(PID.TID 0000.0001)                 7.500000000000001E-02,      /* J =  8 */
(PID.TID 0000.0001)                 8.499999999999999E-02,      /* J =  9 */
(PID.TID 0000.0001)                 9.499999999999999E-02,      /* J = 10 */
(PID.TID 0000.0001)                 1.050000000000000E-01,      /* J = 11 */
(PID.TID 0000.0001)                 1.150000000000000E-01,      /* J = 12 */
(PID.TID 0000.0001)                 1.250000000000000E-01,      /* J = 13 */
(PID.TID 0000.0001)                 1.350000000000000E-01,      /* J = 14 */
(PID.TID 0000.0001)                 1.450000000000000E-01,      /* J = 15 */
(PID.TID 0000.0001)                 1.550000000000000E-01,      /* J = 16 */
(PID.TID 0000.0001)                 1.650000000000000E-01,      /* J = 17 */
(PID.TID 0000.0001)                 1.750000000000000E-01,      /* J = 18 */
(PID.TID 0000.0001)                 1.850000000000000E-01,      /* J = 19 */
(PID.TID 0000.0001)                 1.950000000000000E-01,      /* J = 20 */
(PID.TID 0000.0001)                 2.050000000000000E-01,      /* J = 21 */
(PID.TID 0000.0001)                 2.150000000000001E-01,      /* J = 22 */
(PID.TID 0000.0001)                 2.250000000000001E-01,      /* J = 23 */
(PID.TID 0000.0001)                 2.350000000000001E-01,      /* J = 24 */
(PID.TID 0000.0001)                 2.450000000000001E-01,      /* J = 25 */
(PID.TID 0000.0001)                 2.550000000000001E-01,      /* J = 26 */
(PID.TID 0000.0001)                 2.650000000000001E-01,      /* J = 27 */
(PID.TID 0000.0001)                 2.750000000000001E-01,      /* J = 28 */
(PID.TID 0000.0001)                 2.850000000000001E-01,      /* J = 29 */
(PID.TID 0000.0001)                 2.950000000000001E-01,      /* J = 30 */
(PID.TID 0000.0001)                 3.050000000000001E-01       /* J = 31 */
(PID.TID 0000.0001)     ;
(PID.TID 0000.0001) rcoord =   /* P-point R coordinate (  units of r ) */
(PID.TID 0000.0001)                -2.500000000000000E-03,      /* K =  1 */
(PID.TID 0000.0001)                -7.500000000000000E-03,      /* K =  2 */
(PID.TID 0000.0001)                -1.250000000000000E-02,      /* K =  3 */
(PID.TID 0000.0001)                -1.750000000000000E-02,      /* K =  4 */
(PID.TID 0000.0001)                -2.250000000000000E-02,      /* K =  5 */
(PID.TID 0000.0001)                -2.750000000000000E-02,      /* K =  6 */
(PID.TID 0000.0001)                -3.250000000000000E-02,      /* K =  7 */
(PID.TID 0000.0001)                -3.750000000000000E-02,      /* K =  8 */
(PID.TID 0000.0001)                -4.250000000000000E-02,      /* K =  9 */
(PID.TID 0000.0001)                -4.749999999999999E-02,      /* K = 10 */
(PID.TID 0000.0001)                -5.249999999999999E-02,      /* K = 11 */
(PID.TID 0000.0001)                -5.749999999999999E-02,      /* K = 12 */
(PID.TID 0000.0001)                -6.249999999999999E-02,      /* K = 13 */
(PID.TID 0000.0001)                -6.749999999999999E-02,      /* K = 14 */
(PID.TID 0000.0001)                -7.250000000000000E-02,      /* K = 15 */
(PID.TID 0000.0001)                -7.750000000000000E-02,      /* K = 16 */
(PID.TID 0000.0001)                -8.250000000000000E-02,      /* K = 17 */
(PID.TID 0000.0001)                -8.750000000000001E-02,      /* K = 18 */
(PID.TID 0000.0001)                -9.250000000000001E-02,      /* K = 19 */
(PID.TID 0000.0001)                -9.750000000000002E-02,      /* K = 20 */
(PID.TID 0000.0001)                -1.025000000000000E-01,      /* K = 21 */
(PID.TID 0000.0001)                -1.075000000000000E-01,      /* K = 22 */
(PID.TID 0000.0001)                -1.125000000000000E-01,      /* K = 23 */
(PID.TID 0000.0001)                -1.175000000000000E-01,      /* K = 24 */
(PID.TID 0000.0001)                -1.225000000000000E-01,      /* K = 25 */
(PID.TID 0000.0001)                -1.275000000000000E-01,      /* K = 26 */
(PID.TID 0000.0001)                -1.325000000000000E-01,      /* K = 27 */
(PID.TID 0000.0001)                -1.375000000000000E-01,      /* K = 28 */
(PID.TID 0000.0001)                -1.425000000000000E-01       /* K = 29 */
(PID.TID 0000.0001)     ;
(PID.TID 0000.0001) rF =   /* W-Interf. R coordinate (  units of r ) */
(PID.TID 0000.0001)                 0.000000000000000E+00,      /* K =  1 */
(PID.TID 0000.0001)                -5.000000000000000E-03,      /* K =  2 */
(PID.TID 0000.0001)                -1.000000000000000E-02,      /* K =  3 */
(PID.TID 0000.0001)                -1.500000000000000E-02,      /* K =  4 */
(PID.TID 0000.0001)                -2.000000000000000E-02,      /* K =  5 */
(PID.TID 0000.0001)                -2.500000000000000E-02,      /* K =  6 */
(PID.TID 0000.0001)                -3.000000000000000E-02,      /* K =  7 */
(PID.TID 0000.0001)                -3.500000000000000E-02,      /* K =  8 */
(PID.TID 0000.0001)                -4.000000000000000E-02,      /* K =  9 */
(PID.TID 0000.0001)                -4.500000000000000E-02,      /* K = 10 */
(PID.TID 0000.0001)                -5.000000000000000E-02,      /* K = 11 */
(PID.TID 0000.0001)                -5.499999999999999E-02,      /* K = 12 */
(PID.TID 0000.0001)                -5.999999999999999E-02,      /* K = 13 */
(PID.TID 0000.0001)                -6.499999999999999E-02,      /* K = 14 */
(PID.TID 0000.0001)                -6.999999999999999E-02,      /* K = 15 */
(PID.TID 0000.0001)                -7.500000000000000E-02,      /* K = 16 */
(PID.TID 0000.0001)                -8.000000000000000E-02,      /* K = 17 */
(PID.TID 0000.0001)                -8.500000000000001E-02,      /* K = 18 */
(PID.TID 0000.0001)                -9.000000000000001E-02,      /* K = 19 */
(PID.TID 0000.0001)                -9.500000000000001E-02,      /* K = 20 */
(PID.TID 0000.0001)                -1.000000000000000E-01,      /* K = 21 */
(PID.TID 0000.0001)                -1.050000000000000E-01,      /* K = 22 */
(PID.TID 0000.0001)                -1.100000000000000E-01,      /* K = 23 */
(PID.TID 0000.0001)                -1.150000000000000E-01,      /* K = 24 */
(PID.TID 0000.0001)                -1.200000000000000E-01,      /* K = 25 */
(PID.TID 0000.0001)                -1.250000000000000E-01,      /* K = 26 */
(PID.TID 0000.0001)                -1.300000000000000E-01,      /* K = 27 */
(PID.TID 0000.0001)                -1.350000000000000E-01,      /* K = 28 */
(PID.TID 0000.0001)                -1.400000000000000E-01,      /* K = 29 */
(PID.TID 0000.0001)                -1.450000000000000E-01       /* K = 30 */
(PID.TID 0000.0001)     ;
(PID.TID 0000.0001) dBdrRef = /* Vertical gradient of reference boyancy [(m/s/r)^2)] */
(PID.TID 0000.0001)    29 @  0.000000000000000E+00              /* K =  1: 29 */
(PID.TID 0000.0001)     ;
(PID.TID 0000.0001) dxF =  /* dxF(:,1,:,1) ( m - cartesian, degrees - spherical ) */
(PID.TID 0000.0001)   120 @  2.617993877991496E-04              /* I =  1:120 */
(PID.TID 0000.0001)     ;
(PID.TID 0000.0001) dxF =  /* dxF(1,:,1,:) ( m - cartesian, degrees - spherical ) */
(PID.TID 0000.0001)                 2.617993877991496E-04,      /* J =  1 */
(PID.TID 0000.0001)                 7.853981633974485E-04,      /* J =  2 */
(PID.TID 0000.0001)                 1.308996938995747E-03,      /* J =  3 */
(PID.TID 0000.0001)                 1.832595714594046E-03,      /* J =  4 */
(PID.TID 0000.0001)                 2.356194490192346E-03,      /* J =  5 */
(PID.TID 0000.0001)                 2.879793265790645E-03,      /* J =  6 */
(PID.TID 0000.0001)                 3.403392041388943E-03,      /* J =  7 */
(PID.TID 0000.0001)                 3.926990816987242E-03,      /* J =  8 */
(PID.TID 0000.0001)                 4.450589592585540E-03,      /* J =  9 */
(PID.TID 0000.0001)                 4.974188368183838E-03,      /* J = 10 */
(PID.TID 0000.0001)                 5.497787143782137E-03,      /* J = 11 */
(PID.TID 0000.0001)                 6.021385919380436E-03,      /* J = 12 */
(PID.TID 0000.0001)                 6.544984694978734E-03,      /* J = 13 */
(PID.TID 0000.0001)                 7.068583470577033E-03,      /* J = 14 */
(PID.TID 0000.0001)                 7.592182246175332E-03,      /* J = 15 */
(PID.TID 0000.0001)                 8.115781021773632E-03,      /* J = 16 */
(PID.TID 0000.0001)                 8.639379797371931E-03,      /* J = 17 */
(PID.TID 0000.0001)                 9.162978572970231E-03,      /* J = 18 */
(PID.TID 0000.0001)                 9.686577348568530E-03,      /* J = 19 */
(PID.TID 0000.0001)                 1.021017612416683E-02,      /* J = 20 */
(PID.TID 0000.0001)                 1.073377489976513E-02,      /* J = 21 */
(PID.TID 0000.0001)                 1.125737367536343E-02,      /* J = 22 */
(PID.TID 0000.0001)                 1.178097245096173E-02,      /* J = 23 */
(PID.TID 0000.0001)                 1.230457122656003E-02,      /* J = 24 */
(PID.TID 0000.0001)                 1.282817000215832E-02,      /* J = 25 */
(PID.TID 0000.0001)                 1.335176877775662E-02,      /* J = 26 */
(PID.TID 0000.0001)                 1.387536755335492E-02,      /* J = 27 */
(PID.TID 0000.0001)                 1.439896632895322E-02,      /* J = 28 */
(PID.TID 0000.0001)                 1.492256510455152E-02,      /* J = 29 */
(PID.TID 0000.0001)                 1.544616388014982E-02,      /* J = 30 */
(PID.TID 0000.0001)                 1.596976265574812E-02       /* J = 31 */
(PID.TID 0000.0001)     ;
(PID.TID 0000.0001) dyF =  /* dyF(:,1,:,1) ( m - cartesian, degrees - spherical ) */
(PID.TID 0000.0001)   120 @  1.000000000000000E-02              /* I =  1:120 */
(PID.TID 0000.0001)     ;
(PID.TID 0000.0001) dyF =  /* dyF(1,:,1,:) ( m - cartesian, degrees - spherical ) */
(PID.TID 0000.0001)    31 @  1.000000000000000E-02              /* J =  1: 31 */
(PID.TID 0000.0001)     ;
(PID.TID 0000.0001) dxG =  /* dxG(:,1,:,1) ( m - cartesian, degrees - spherical ) */
(PID.TID 0000.0001)   120 @  1.816598176046163E-19              /* I =  1:120 */
(PID.TID 0000.0001)     ;
(PID.TID 0000.0001) dxG =  /* dxG(1,:,1,:) ( m - cartesian, degrees - spherical ) */
(PID.TID 0000.0001)                 1.816598176046163E-19,      /* J =  1 */
(PID.TID 0000.0001)                 5.235987755982991E-04,      /* J =  2 */
(PID.TID 0000.0001)                 1.047197551196598E-03,      /* J =  3 */
(PID.TID 0000.0001)                 1.570796326794897E-03,      /* J =  4 */
(PID.TID 0000.0001)                 2.094395102393196E-03,      /* J =  5 */
(PID.TID 0000.0001)                 2.617993877991494E-03,      /* J =  6 */
(PID.TID 0000.0001)                 3.141592653589794E-03,      /* J =  7 */
(PID.TID 0000.0001)                 3.665191429188093E-03,      /* J =  8 */
(PID.TID 0000.0001)                 4.188790204786390E-03,      /* J =  9 */
(PID.TID 0000.0001)                 4.712388980384690E-03,      /* J = 10 */
(PID.TID 0000.0001)                 5.235987755982988E-03,      /* J = 11 */
(PID.TID 0000.0001)                 5.759586531581287E-03,      /* J = 12 */
(PID.TID 0000.0001)                 6.283185307179585E-03,      /* J = 13 */
(PID.TID 0000.0001)                 6.806784082777883E-03,      /* J = 14 */
(PID.TID 0000.0001)                 7.330382858376183E-03,      /* J = 15 */
(PID.TID 0000.0001)                 7.853981633974482E-03,      /* J = 16 */
(PID.TID 0000.0001)                 8.377580409572781E-03,      /* J = 17 */
(PID.TID 0000.0001)                 8.901179185171080E-03,      /* J = 18 */
(PID.TID 0000.0001)                 9.424777960769379E-03,      /* J = 19 */
(PID.TID 0000.0001)                 9.948376736367679E-03,      /* J = 20 */
(PID.TID 0000.0001)                 1.047197551196598E-02,      /* J = 21 */
(PID.TID 0000.0001)                 1.099557428756428E-02,      /* J = 22 */
(PID.TID 0000.0001)                 1.151917306316258E-02,      /* J = 23 */
(PID.TID 0000.0001)                 1.204277183876088E-02,      /* J = 24 */
(PID.TID 0000.0001)                 1.256637061435918E-02,      /* J = 25 */
(PID.TID 0000.0001)                 1.308996938995748E-02,      /* J = 26 */
(PID.TID 0000.0001)                 1.361356816555578E-02,      /* J = 27 */
(PID.TID 0000.0001)                 1.413716694115407E-02,      /* J = 28 */
(PID.TID 0000.0001)                 1.466076571675237E-02,      /* J = 29 */
(PID.TID 0000.0001)                 1.518436449235067E-02,      /* J = 30 */
(PID.TID 0000.0001)                 1.570796326794897E-02       /* J = 31 */
(PID.TID 0000.0001)     ;
(PID.TID 0000.0001) dyG =  /* dyG(:,1,:,1) ( m - cartesian, degrees - spherical ) */
(PID.TID 0000.0001)   120 @  1.000000000000000E-02              /* I =  1:120 */
(PID.TID 0000.0001)     ;
(PID.TID 0000.0001) dyG =  /* dyG(1,:,1,:) ( m - cartesian, degrees - spherical ) */
(PID.TID 0000.0001)    31 @  1.000000000000000E-02              /* J =  1: 31 */
(PID.TID 0000.0001)     ;
(PID.TID 0000.0001) dxC =  /* dxC(:,1,:,1) ( m - cartesian, degrees - spherical ) */
(PID.TID 0000.0001)   120 @  2.617993877991496E-04              /* I =  1:120 */
(PID.TID 0000.0001)     ;
(PID.TID 0000.0001) dxC =  /* dxC(1,:,1,:) ( m - cartesian, degrees - spherical ) */
(PID.TID 0000.0001)                 2.617993877991496E-04,      /* J =  1 */
(PID.TID 0000.0001)                 7.853981633974485E-04,      /* J =  2 */
(PID.TID 0000.0001)                 1.308996938995747E-03,      /* J =  3 */
(PID.TID 0000.0001)                 1.832595714594046E-03,      /* J =  4 */
(PID.TID 0000.0001)                 2.356194490192346E-03,      /* J =  5 */
(PID.TID 0000.0001)                 2.879793265790645E-03,      /* J =  6 */
(PID.TID 0000.0001)                 3.403392041388943E-03,      /* J =  7 */
(PID.TID 0000.0001)                 3.926990816987242E-03,      /* J =  8 */
(PID.TID 0000.0001)                 4.450589592585540E-03,      /* J =  9 */
(PID.TID 0000.0001)                 4.974188368183838E-03,      /* J = 10 */
(PID.TID 0000.0001)                 5.497787143782137E-03,      /* J = 11 */
(PID.TID 0000.0001)                 6.021385919380436E-03,      /* J = 12 */
(PID.TID 0000.0001)                 6.544984694978734E-03,      /* J = 13 */
(PID.TID 0000.0001)                 7.068583470577033E-03,      /* J = 14 */
(PID.TID 0000.0001)                 7.592182246175332E-03,      /* J = 15 */
(PID.TID 0000.0001)                 8.115781021773632E-03,      /* J = 16 */
(PID.TID 0000.0001)                 8.639379797371931E-03,      /* J = 17 */
(PID.TID 0000.0001)                 9.162978572970231E-03,      /* J = 18 */
(PID.TID 0000.0001)                 9.686577348568530E-03,      /* J = 19 */
(PID.TID 0000.0001)                 1.021017612416683E-02,      /* J = 20 */
(PID.TID 0000.0001)                 1.073377489976513E-02,      /* J = 21 */
(PID.TID 0000.0001)                 1.125737367536343E-02,      /* J = 22 */
(PID.TID 0000.0001)                 1.178097245096173E-02,      /* J = 23 */
(PID.TID 0000.0001)                 1.230457122656003E-02,      /* J = 24 */
(PID.TID 0000.0001)                 1.282817000215832E-02,      /* J = 25 */
(PID.TID 0000.0001)                 1.335176877775662E-02,      /* J = 26 */
(PID.TID 0000.0001)                 1.387536755335492E-02,      /* J = 27 */
(PID.TID 0000.0001)                 1.439896632895322E-02,      /* J = 28 */
(PID.TID 0000.0001)                 1.492256510455152E-02,      /* J = 29 */
(PID.TID 0000.0001)                 1.544616388014982E-02,      /* J = 30 */
(PID.TID 0000.0001)                 1.596976265574812E-02       /* J = 31 */
(PID.TID 0000.0001)     ;
(PID.TID 0000.0001) dyC =  /* dyC(:,1,:,1) ( m - cartesian, degrees - spherical ) */
(PID.TID 0000.0001)   120 @  1.000000000000000E-02              /* I =  1:120 */
(PID.TID 0000.0001)     ;
(PID.TID 0000.0001) dyC =  /* dyC(1,:,1,:) ( m - cartesian, degrees - spherical ) */
(PID.TID 0000.0001)    31 @  1.000000000000000E-02              /* J =  1: 31 */
(PID.TID 0000.0001)     ;
(PID.TID 0000.0001) dxV =  /* dxV(:,1,:,1) ( m - cartesian, degrees - spherical ) */
(PID.TID 0000.0001)   120 @  1.816598176046163E-19              /* I =  1:120 */
(PID.TID 0000.0001)     ;
(PID.TID 0000.0001) dxV =  /* dxV(1,:,1,:) ( m - cartesian, degrees - spherical ) */
(PID.TID 0000.0001)                 1.816598176046163E-19,      /* J =  1 */
(PID.TID 0000.0001)                 5.235987755982991E-04,      /* J =  2 */
(PID.TID 0000.0001)                 1.047197551196598E-03,      /* J =  3 */
(PID.TID 0000.0001)                 1.570796326794897E-03,      /* J =  4 */
(PID.TID 0000.0001)                 2.094395102393196E-03,      /* J =  5 */
(PID.TID 0000.0001)                 2.617993877991494E-03,      /* J =  6 */
(PID.TID 0000.0001)                 3.141592653589794E-03,      /* J =  7 */
(PID.TID 0000.0001)                 3.665191429188093E-03,      /* J =  8 */
(PID.TID 0000.0001)                 4.188790204786390E-03,      /* J =  9 */
(PID.TID 0000.0001)                 4.712388980384690E-03,      /* J = 10 */
(PID.TID 0000.0001)                 5.235987755982988E-03,      /* J = 11 */
(PID.TID 0000.0001)                 5.759586531581287E-03,      /* J = 12 */
(PID.TID 0000.0001)                 6.283185307179585E-03,      /* J = 13 */
(PID.TID 0000.0001)                 6.806784082777883E-03,      /* J = 14 */
(PID.TID 0000.0001)                 7.330382858376183E-03,      /* J = 15 */
(PID.TID 0000.0001)                 7.853981633974482E-03,      /* J = 16 */
(PID.TID 0000.0001)                 8.377580409572781E-03,      /* J = 17 */
(PID.TID 0000.0001)                 8.901179185171080E-03,      /* J = 18 */
(PID.TID 0000.0001)                 9.424777960769379E-03,      /* J = 19 */
(PID.TID 0000.0001)                 9.948376736367679E-03,      /* J = 20 */
(PID.TID 0000.0001)                 1.047197551196598E-02,      /* J = 21 */
(PID.TID 0000.0001)                 1.099557428756428E-02,      /* J = 22 */
(PID.TID 0000.0001)                 1.151917306316258E-02,      /* J = 23 */
(PID.TID 0000.0001)                 1.204277183876088E-02,      /* J = 24 */
(PID.TID 0000.0001)                 1.256637061435918E-02,      /* J = 25 */
(PID.TID 0000.0001)                 1.308996938995748E-02,      /* J = 26 */
(PID.TID 0000.0001)                 1.361356816555578E-02,      /* J = 27 */
(PID.TID 0000.0001)                 1.413716694115407E-02,      /* J = 28 */
(PID.TID 0000.0001)                 1.466076571675237E-02,      /* J = 29 */
(PID.TID 0000.0001)                 1.518436449235067E-02,      /* J = 30 */
(PID.TID 0000.0001)                 1.570796326794897E-02       /* J = 31 */
(PID.TID 0000.0001)     ;
(PID.TID 0000.0001) dyU =  /* dyU(:,1,:,1) ( m - cartesian, degrees - spherical ) */
(PID.TID 0000.0001)   120 @  1.000000000000000E-02              /* I =  1:120 */
(PID.TID 0000.0001)     ;
(PID.TID 0000.0001) dyU =  /* dyU(1,:,1,:) ( m - cartesian, degrees - spherical ) */
(PID.TID 0000.0001)    31 @  1.000000000000000E-02              /* J =  1: 31 */
(PID.TID 0000.0001)     ;
(PID.TID 0000.0001) rA =  /* rA(:,1,:,1) ( m - cartesian, degrees - spherical ) */
(PID.TID 0000.0001)   120 @  2.617993877991496E-06              /* I =  1:120 */
(PID.TID 0000.0001)     ;
(PID.TID 0000.0001) rA =  /* rA(1,:,1,:) ( m - cartesian, degrees - spherical ) */
(PID.TID 0000.0001)                 2.617993877991496E-06,      /* J =  1 */
(PID.TID 0000.0001)                 7.853981633974485E-06,      /* J =  2 */
(PID.TID 0000.0001)                 1.308996938995747E-05,      /* J =  3 */
(PID.TID 0000.0001)                 1.832595714594046E-05,      /* J =  4 */
(PID.TID 0000.0001)                 2.356194490192346E-05,      /* J =  5 */
(PID.TID 0000.0001)                 2.879793265790645E-05,      /* J =  6 */
(PID.TID 0000.0001)                 3.403392041388943E-05,      /* J =  7 */
(PID.TID 0000.0001)                 3.926990816987242E-05,      /* J =  8 */
(PID.TID 0000.0001)                 4.450589592585540E-05,      /* J =  9 */
(PID.TID 0000.0001)                 4.974188368183839E-05,      /* J = 10 */
(PID.TID 0000.0001)                 5.497787143782137E-05,      /* J = 11 */
(PID.TID 0000.0001)                 6.021385919380436E-05,      /* J = 12 */
(PID.TID 0000.0001)                 6.544984694978734E-05,      /* J = 13 */
(PID.TID 0000.0001)                 7.068583470577033E-05,      /* J = 14 */
(PID.TID 0000.0001)                 7.592182246175332E-05,      /* J = 15 */
(PID.TID 0000.0001)                 8.115781021773632E-05,      /* J = 16 */
[...]
(PID.TID 0000.0001) %MON dynstat_salt_mean            =   3.4999999999986E+01
(PID.TID 0000.0001) %MON dynstat_salt_sd              =   1.4040324458618E-11
(PID.TID 0000.0001) %MON dynstat_salt_del2            =   0.0000000000000E+00
(PID.TID 0000.0001) %MON advcfl_uvel_max              =   4.8485582011452E-04
(PID.TID 0000.0001) %MON advcfl_vvel_max              =   1.0298843631959E-03
(PID.TID 0000.0001) %MON advcfl_wvel_max              =   3.4303899739477E-03
(PID.TID 0000.0001) %MON advcfl_W_hf_max              =   3.4303899739477E-03
(PID.TID 0000.0001) %MON pe_b_mean                    =   1.4048267704505E-12
(PID.TID 0000.0001) %MON ke_max                       =   3.5120555843245E-09
(PID.TID 0000.0001) %MON ke_mean                      =   3.5660171895746E-11
(PID.TID 0000.0001) %MON ke_vol                       =   3.8082386146826E-02
(PID.TID 0000.0001) %MON vort_r_min                   =  -1.7404438709267E-03
(PID.TID 0000.0001) %MON vort_r_max                   =   1.7701731243429E-03
(PID.TID 0000.0001) %MON vort_a_mean                  =   5.0000000000220E-01
(PID.TID 0000.0001) %MON vort_a_sd                    =   1.0973206477915E-04
(PID.TID 0000.0001) %MON vort_p_mean                  =   5.3488372093259E-01
(PID.TID 0000.0001) %MON vort_p_sd                    =   2.2607252180596E-01
(PID.TID 0000.0001) %MON surfExpan_theta_mean         =   0.0000000000000E+00
(PID.TID 0000.0001) %MON surfExpan_salt_mean          =   0.0000000000000E+00
(PID.TID 0000.0001) // =======================================================
(PID.TID 0000.0001) // End MONITOR dynamic field statistics
(PID.TID 0000.0001) // =======================================================
 cg2d: Sum(rhs),rhsMax =   4.56579218877096E-15  3.09496583813849E-06
(PID.TID 0000.0001)                    cg2d_init_res =    7.49383788194891E-01
(PID.TID 0000.0001)                       cg2d_iters =    38
(PID.TID 0000.0001)                         cg2d_res =    8.95045744415052E-08
 cg3d: Sum(rhs),rhsMax =   5.79709891201929E-14  1.07782578721445E-06
(PID.TID 0000.0001)                    cg3d_init_res =    2.42354174292152E+00
(PID.TID 0000.0001)                       cg3d_iters =    10
(PID.TID 0000.0001)                         cg3d_res =    2.61260501809955E-01
(PID.TID 0000.0001) // =======================================================
(PID.TID 0000.0001) // Begin MONITOR dynamic field statistics
(PID.TID 0000.0001) // =======================================================
(PID.TID 0000.0001) %MON time_tsnumber                =                    19
(PID.TID 0000.0001) %MON time_secondsf                =   1.9000000000000E+00
(PID.TID 0000.0001) %MON dynstat_eta_max              =   8.8044151776574E-08
(PID.TID 0000.0001) %MON dynstat_eta_min              =  -1.4047715304856E-06
(PID.TID 0000.0001) %MON dynstat_eta_mean             =   5.0561406933639E-08
(PID.TID 0000.0001) %MON dynstat_eta_sd               =   2.0903264921895E-07
(PID.TID 0000.0001) %MON dynstat_eta_del2             =   3.5573929302660E-08
(PID.TID 0000.0001) %MON dynstat_uvel_max             =   2.7919981977066E-05
(PID.TID 0000.0001) %MON dynstat_uvel_min             =  -2.8062067858254E-05
(PID.TID 0000.0001) %MON dynstat_uvel_mean            =   7.2418396391659E-11
(PID.TID 0000.0001) %MON dynstat_uvel_sd              =   2.8057921033465E-06
(PID.TID 0000.0001) %MON dynstat_uvel_del2            =   2.0705919879219E-07
(PID.TID 0000.0001) %MON dynstat_vvel_max             =   1.1190457894665E-04
(PID.TID 0000.0001) %MON dynstat_vvel_min             =  -1.1383228083604E-04
(PID.TID 0000.0001) %MON dynstat_vvel_mean            =   5.7807960084664E-17
(PID.TID 0000.0001) %MON dynstat_vvel_sd              =   9.1500701338784E-06
(PID.TID 0000.0001) %MON dynstat_vvel_del2            =   3.4520109777626E-07
(PID.TID 0000.0001) %MON dynstat_wvel_max             =   3.4758801062064E-05
(PID.TID 0000.0001) %MON dynstat_wvel_min             =  -1.8901787956305E-04
(PID.TID 0000.0001) %MON dynstat_wvel_mean            =   1.2582453630577E-22
(PID.TID 0000.0001) %MON dynstat_wvel_sd              =   2.2047466834242E-05
(PID.TID 0000.0001) %MON dynstat_wvel_del2            =   5.6411094738443E-06
(PID.TID 0000.0001) %MON dynstat_theta_max            =   2.0000961508181E+01
(PID.TID 0000.0001) %MON dynstat_theta_min            =   1.9895540301897E+01
(PID.TID 0000.0001) %MON dynstat_theta_mean           =   1.9998329796213E+01
(PID.TID 0000.0001) %MON dynstat_theta_sd             =   1.4723071755580E-02
(PID.TID 0000.0001) %MON dynstat_theta_del2           =   2.4988243712176E-03
(PID.TID 0000.0001) %MON dynstat_salt_max             =   3.5000000000000E+01
(PID.TID 0000.0001) %MON dynstat_salt_min             =   3.5000000000000E+01
(PID.TID 0000.0001) %MON dynstat_salt_mean            =   3.4999999999986E+01
(PID.TID 0000.0001) %MON dynstat_salt_sd              =   1.4040324458618E-11
(PID.TID 0000.0001) %MON dynstat_salt_del2            =   0.0000000000000E+00
(PID.TID 0000.0001) %MON advcfl_uvel_max              =   5.6415370269742E-04
(PID.TID 0000.0001) %MON advcfl_vvel_max              =   1.1383228083604E-03
(PID.TID 0000.0001) %MON advcfl_wvel_max              =   3.7803575912610E-03
(PID.TID 0000.0001) %MON advcfl_W_hf_max              =   3.7803575912610E-03
(PID.TID 0000.0001) %MON pe_b_mean                    =   1.5645632182307E-12
(PID.TID 0000.0001) %MON ke_max                       =   4.3354840854401E-09
(PID.TID 0000.0001) %MON ke_mean                      =   4.3895313133319E-11
(PID.TID 0000.0001) %MON ke_vol                       =   3.8082386146826E-02
(PID.TID 0000.0001) %MON vort_r_min                   =  -2.0214631666794E-03
(PID.TID 0000.0001) %MON vort_r_max                   =   2.0471205363765E-03
(PID.TID 0000.0001) %MON vort_a_mean                  =   5.0000000000220E-01
(PID.TID 0000.0001) %MON vort_a_sd                    =   1.2820366771934E-04
(PID.TID 0000.0001) %MON vort_p_mean                  =   5.3488372093259E-01
(PID.TID 0000.0001) %MON vort_p_sd                    =   2.2607258565452E-01
(PID.TID 0000.0001) %MON surfExpan_theta_mean         =   0.0000000000000E+00
(PID.TID 0000.0001) %MON surfExpan_salt_mean          =   0.0000000000000E+00
(PID.TID 0000.0001) // =======================================================
(PID.TID 0000.0001) // End MONITOR dynamic field statistics
(PID.TID 0000.0001) // =======================================================
 cg2d: Sum(rhs),rhsMax =   1.52967916111635E-14  3.24302259479404E-06
(PID.TID 0000.0001)                    cg2d_init_res =    7.10612824378535E-01
(PID.TID 0000.0001)                       cg2d_iters =    38
(PID.TID 0000.0001)                         cg2d_res =    8.68241337646381E-08
 cg3d: Sum(rhs),rhsMax =  -6.80098338756707E-14  1.12829490305902E-06
(PID.TID 0000.0001)                    cg3d_init_res =    2.29946575571581E+00
(PID.TID 0000.0001)                       cg3d_iters =    10
(PID.TID 0000.0001)                         cg3d_res =    2.41132151696775E-01
(PID.TID 0000.0001) // =======================================================
(PID.TID 0000.0001) // Begin MONITOR dynamic field statistics
(PID.TID 0000.0001) // =======================================================
(PID.TID 0000.0001) %MON time_tsnumber                =                    20
(PID.TID 0000.0001) %MON time_secondsf                =   2.0000000000000E+00
(PID.TID 0000.0001) %MON dynstat_eta_max              =   9.2369675828588E-08
(PID.TID 0000.0001) %MON dynstat_eta_min              =  -1.4777088883831E-06
(PID.TID 0000.0001) %MON dynstat_eta_mean             =   5.3256361221544E-08
(PID.TID 0000.0001) %MON dynstat_eta_sd               =   2.1994586874020E-07
(PID.TID 0000.0001) %MON dynstat_eta_del2             =   3.7221250213547E-08
(PID.TID 0000.0001) %MON dynstat_uvel_max             =   3.2111883126047E-05
(PID.TID 0000.0001) %MON dynstat_uvel_min             =  -3.2302311418724E-05
(PID.TID 0000.0001) %MON dynstat_uvel_mean            =   9.7224014511444E-11
(PID.TID 0000.0001) %MON dynstat_uvel_sd              =   3.2431790969971E-06
(PID.TID 0000.0001) %MON dynstat_uvel_del2            =   2.2441838247941E-07
(PID.TID 0000.0001) %MON dynstat_vvel_max             =   1.2303700041075E-04
(PID.TID 0000.0001) %MON dynstat_vvel_min             =  -1.2518519131764E-04
(PID.TID 0000.0001) %MON dynstat_vvel_mean            =  -1.9729561916514E-17
(PID.TID 0000.0001) %MON dynstat_vvel_sd              =   1.0053214895384E-05
(PID.TID 0000.0001) %MON dynstat_vvel_del2            =   3.6971519030549E-07
(PID.TID 0000.0001) %MON dynstat_wvel_max             =   3.7453378444195E-05
(PID.TID 0000.0001) %MON dynstat_wvel_min             =  -2.0708665916919E-04
(PID.TID 0000.0001) %MON dynstat_wvel_mean            =   2.1900886075543E-21
(PID.TID 0000.0001) %MON dynstat_wvel_sd              =   2.4292484191306E-05
(PID.TID 0000.0001) %MON dynstat_wvel_del2            =   6.0502553908787E-06
(PID.TID 0000.0001) %MON dynstat_theta_max            =   2.0000960106176E+01
(PID.TID 0000.0001) %MON dynstat_theta_min            =   1.9890142345055E+01
(PID.TID 0000.0001) %MON dynstat_theta_mean           =   1.9998215567254E+01
(PID.TID 0000.0001) %MON dynstat_theta_sd             =   1.5476303785783E-02
(PID.TID 0000.0001) %MON dynstat_theta_del2           =   2.6122496455207E-03
(PID.TID 0000.0001) %MON dynstat_salt_max             =   3.5000000000000E+01
(PID.TID 0000.0001) %MON dynstat_salt_min             =   3.5000000000000E+01
(PID.TID 0000.0001) %MON dynstat_salt_mean            =   3.4999999999986E+01
(PID.TID 0000.0001) %MON dynstat_salt_sd              =   1.4040324458618E-11
(PID.TID 0000.0001) %MON dynstat_salt_del2            =   0.0000000000000E+00
(PID.TID 0000.0001) %MON advcfl_uvel_max              =   6.4939863607374E-04
(PID.TID 0000.0001) %MON advcfl_vvel_max              =   1.2518519131764E-03
(PID.TID 0000.0001) %MON advcfl_wvel_max              =   4.1417331833839E-03
(PID.TID 0000.0001) %MON advcfl_W_hf_max              =   4.1417331833839E-03
(PID.TID 0000.0001) %MON pe_b_mean                    =   1.7323927278582E-12
(PID.TID 0000.0001) %MON ke_max                       =   5.2952472501309E-09
(PID.TID 0000.0001) %MON ke_mean                      =   5.3495689977493E-11
(PID.TID 0000.0001) %MON ke_vol                       =   3.8082386146826E-02
(PID.TID 0000.0001) %MON vort_r_min                   =  -2.3234015481730E-03
(PID.TID 0000.0001) %MON vort_r_max                   =   2.3626535558090E-03
(PID.TID 0000.0001) %MON vort_a_mean                  =   5.0000000000220E-01
(PID.TID 0000.0001) %MON vort_a_sd                    =   1.4856847048443E-04
(PID.TID 0000.0001) %MON vort_p_mean                  =   5.3488372093259E-01
(PID.TID 0000.0001) %MON vort_p_sd                    =   2.2607266780502E-01
(PID.TID 0000.0001) %MON surfExpan_theta_mean         =   0.0000000000000E+00
(PID.TID 0000.0001) %MON surfExpan_salt_mean          =   0.0000000000000E+00
(PID.TID 0000.0001) // =======================================================
(PID.TID 0000.0001) // End MONITOR dynamic field statistics
(PID.TID 0000.0001) // =======================================================
(PID.TID 0000.0001)   Seconds in section "ALL                    [THE_MODEL_MAIN]":
(PID.TID 0000.0001)           User time:  40.0439114
(PID.TID 0000.0001)         System time:  0.408937998
(PID.TID 0000.0001)     Wall clock time:  60.6610529
(PID.TID 0000.0001)          No. starts: 1
(PID.TID 0000.0001)           No. stops: 1
(PID.TID 0000.0001)   Seconds in section "INITIALISE_FIXED       [THE_MODEL_MAIN]":
(PID.TID 0000.0001)           User time:  1.56876204
(PID.TID 0000.0001)         System time:  0.128980004
(PID.TID 0000.0001)     Wall clock time:  3.27002287
(PID.TID 0000.0001)          No. starts: 1
(PID.TID 0000.0001)           No. stops: 1
(PID.TID 0000.0001)   Seconds in section "THE_MAIN_LOOP          [THE_MODEL_MAIN]":
(PID.TID 0000.0001)           User time:  38.4741499
(PID.TID 0000.0001)         System time:  0.279957995
(PID.TID 0000.0001)     Wall clock time:  57.390821
(PID.TID 0000.0001)          No. starts: 1
(PID.TID 0000.0001)           No. stops: 1
(PID.TID 0000.0001)   Seconds in section "INITIALISE_VARIA    [THE_MAIN_LOOP]":
(PID.TID 0000.0001)           User time:  0.124980927
(PID.TID 0000.0001)         System time:  0.0389949977
(PID.TID 0000.0001)     Wall clock time:  0.692363977
(PID.TID 0000.0001)          No. starts: 1
(PID.TID 0000.0001)           No. stops: 1
(PID.TID 0000.0001)   Seconds in section "MAIN LOOP           [THE_MAIN_LOOP]":
(PID.TID 0000.0001)           User time:  38.0222189
(PID.TID 0000.0001)         System time:  0.196970001
(PID.TID 0000.0001)     Wall clock time:  55.9349229
(PID.TID 0000.0001)          No. starts: 1
(PID.TID 0000.0001)           No. stops: 1
(PID.TID 0000.0001)   Seconds in section "FORWARD_STEP        [THE_MAIN_LOOP]":
(PID.TID 0000.0001)           User time:  38.0222189
(PID.TID 0000.0001)         System time:  0.196970001
(PID.TID 0000.0001)     Wall clock time:  55.9340942
(PID.TID 0000.0001)          No. starts: 20
(PID.TID 0000.0001)           No. stops: 20
(PID.TID 0000.0001)   Seconds in section "LOAD_FIELDS_DRIVER  [FORWARD_STEP]":
(PID.TID 0000.0001)           User time:  0.00699472427
(PID.TID 0000.0001)         System time:  0.
(PID.TID 0000.0001)     Wall clock time:  0.0133652687
(PID.TID 0000.0001)          No. starts: 20
(PID.TID 0000.0001)           No. stops: 20
(PID.TID 0000.0001)   Seconds in section "EXTERNAL_FLDS_LOAD [LOAD_FLDS_DRIVER]":
(PID.TID 0000.0001)           User time:  0.00399637222
(PID.TID 0000.0001)         System time:  0.
(PID.TID 0000.0001)     Wall clock time:  0.0117366314
(PID.TID 0000.0001)          No. starts: 20
(PID.TID 0000.0001)           No. stops: 20
(PID.TID 0000.0001)   Seconds in section "DO_ATMOSPHERIC_PHYS [FORWARD_STEP]":
(PID.TID 0000.0001)           User time:  0.
(PID.TID 0000.0001)         System time:  0.
(PID.TID 0000.0001)     Wall clock time:  0.000783205032
(PID.TID 0000.0001)          No. starts: 20
(PID.TID 0000.0001)           No. stops: 20
(PID.TID 0000.0001)   Seconds in section "DO_OCEANIC_PHYS     [FORWARD_STEP]":
(PID.TID 0000.0001)           User time:  0.156976223
(PID.TID 0000.0001)         System time:  0.00599898398
(PID.TID 0000.0001)     Wall clock time:  0.25399828
(PID.TID 0000.0001)          No. starts: 20
(PID.TID 0000.0001)           No. stops: 20
(PID.TID 0000.0001)   Seconds in section "THERMODYNAMICS      [FORWARD_STEP]":
(PID.TID 0000.0001)           User time:  4.89625144
(PID.TID 0000.0001)         System time:  0.00500001013
(PID.TID 0000.0001)     Wall clock time:  7.14730263
(PID.TID 0000.0001)          No. starts: 20
(PID.TID 0000.0001)           No. stops: 20
(PID.TID 0000.0001)   Seconds in section "DYNAMICS            [FORWARD_STEP]":
(PID.TID 0000.0001)           User time:  11.5902488
(PID.TID 0000.0001)         System time:  0.0259979963
(PID.TID 0000.0001)     Wall clock time:  17.2335365
(PID.TID 0000.0001)          No. starts: 20
(PID.TID 0000.0001)           No. stops: 20
(PID.TID 0000.0001)   Seconds in section "CALC_GW          [DYNAMICS]":
(PID.TID 0000.0001)           User time:  3.0545435
(PID.TID 0000.0001)         System time:  0.00599999726
(PID.TID 0000.0001)     Wall clock time:  4.65076828
(PID.TID 0000.0001)          No. starts: 20
(PID.TID 0000.0001)           No. stops: 20
(PID.TID 0000.0001)   Seconds in section "SOLVE_FOR_PRESSURE  [FORWARD_STEP]":
(PID.TID 0000.0001)           User time:  15.7356031
(PID.TID 0000.0001)         System time:  0.0199960321
(PID.TID 0000.0001)     Wall clock time:  22.6996243
(PID.TID 0000.0001)          No. starts: 20
(PID.TID 0000.0001)           No. stops: 20
(PID.TID 0000.0001)   Seconds in section "CG3D   [SOLVE_FOR_PRESSURE]":
(PID.TID 0000.0001)           User time:  13.1040063
(PID.TID 0000.0001)         System time:  0.0149990171
(PID.TID 0000.0001)     Wall clock time:  18.6020155
(PID.TID 0000.0001)          No. starts: 20
(PID.TID 0000.0001)           No. stops: 20
(PID.TID 0000.0001)   Seconds in section "MOM_CORRECTION_STEP [FORWARD_STEP]":
(PID.TID 0000.0001)           User time:  0.691892624
(PID.TID 0000.0001)         System time:  0.
(PID.TID 0000.0001)     Wall clock time:  0.963621855
(PID.TID 0000.0001)          No. starts: 20
(PID.TID 0000.0001)           No. stops: 20
(PID.TID 0000.0001)   Seconds in section "TRC_CORRECTION_STEP [FORWARD_STEP]":
(PID.TID 0000.0001)           User time:  0.134981632
(PID.TID 0000.0001)         System time:  0.
(PID.TID 0000.0001)     Wall clock time:  0.239370584
(PID.TID 0000.0001)          No. starts: 20
(PID.TID 0000.0001)           No. stops: 20
(PID.TID 0000.0001)   Seconds in section "BLOCKING_EXCHANGES  [FORWARD_STEP]":
(PID.TID 0000.0001)           User time:  0.197965384
(PID.TID 0000.0001)         System time:  0.000999987125
(PID.TID 0000.0001)     Wall clock time:  0.200778723
(PID.TID 0000.0001)          No. starts: 20
(PID.TID 0000.0001)           No. stops: 20
(PID.TID 0000.0001)   Seconds in section "DO_STATEVARS_TAVE   [FORWARD_STEP]":
(PID.TID 0000.0001)           User time:  0.00100040436
(PID.TID 0000.0001)         System time:  0.
(PID.TID 0000.0001)     Wall clock time:  0.000719308853
(PID.TID 0000.0001)          No. starts: 20
(PID.TID 0000.0001)           No. stops: 20
(PID.TID 0000.0001)   Seconds in section "MONITOR             [FORWARD_STEP]":
(PID.TID 0000.0001)           User time:  4.07638001
(PID.TID 0000.0001)         System time:  0.0029989779
(PID.TID 0000.0001)     Wall clock time:  5.87869883
(PID.TID 0000.0001)          No. starts: 20
(PID.TID 0000.0001)           No. stops: 20
(PID.TID 0000.0001)   Seconds in section "DO_THE_MODEL_IO     [FORWARD_STEP]":
(PID.TID 0000.0001)           User time:  0.135978699
(PID.TID 0000.0001)         System time:  0.0189970136
(PID.TID 0000.0001)     Wall clock time:  0.158964634
(PID.TID 0000.0001)          No. starts: 20
(PID.TID 0000.0001)           No. stops: 20
(PID.TID 0000.0001)   Seconds in section "WRITE_CHECKPOINT    [FORWARD_STEP]":
(PID.TID 0000.0001)           User time:  0.386940002
(PID.TID 0000.0001)         System time:  0.112982988
(PID.TID 0000.0001)     Wall clock time:  1.1170094
(PID.TID 0000.0001)          No. starts: 20
(PID.TID 0000.0001)           No. stops: 20
(PID.TID 0000.0001)   Seconds in section "WRITE_CHECKPOINT       [THE_MODEL_MAIN]":
(PID.TID 0000.0001)           User time:  0.
(PID.TID 0000.0001)         System time:  0.
(PID.TID 0000.0001)     Wall clock time:  3.60012054E-05
(PID.TID 0000.0001)          No. starts: 1
(PID.TID 0000.0001)           No. stops: 1
(PID.TID 0000.0001) // ======================================================
(PID.TID 0000.0001) // Tile <-> Tile communication statistics
(PID.TID 0000.0001) // ======================================================
(PID.TID 0000.0001) // o Tile number: 000001
(PID.TID 0000.0001) //         No. X exchanges =              0
(PID.TID 0000.0001) //            Max. X spins =              0
(PID.TID 0000.0001) //            Min. X spins =     1000000000
(PID.TID 0000.0001) //          Total. X spins =              0
(PID.TID 0000.0001) //            Avg. X spins =       0.00E+00
(PID.TID 0000.0001) //         No. Y exchanges =              0
(PID.TID 0000.0001) //            Max. Y spins =              0
(PID.TID 0000.0001) //            Min. Y spins =     1000000000
(PID.TID 0000.0001) //          Total. Y spins =              0
(PID.TID 0000.0001) //            Avg. Y spins =       0.00E+00
(PID.TID 0000.0001) // o Thread number: 000001
(PID.TID 0000.0001) //            No. barriers =          20122
(PID.TID 0000.0001) //      Max. barrier spins =              1
(PID.TID 0000.0001) //      Min. barrier spins =              1
(PID.TID 0000.0001) //     Total barrier spins =          20122
(PID.TID 0000.0001) //      Avg. barrier spins =       1.00E+00
