(PID.TID 0000.0001) 
(PID.TID 0000.0001) // ======================================================
(PID.TID 0000.0001) //                      MITgcm UV
(PID.TID 0000.0001) //                      =========
(PID.TID 0000.0001) // ======================================================
(PID.TID 0000.0001) // execution environment starting up...
(PID.TID 0000.0001) 
(PID.TID 0000.0001) // MITgcmUV version:  checkpoint58l_post
(PID.TID 0000.0001) // Build user:        jmc
(PID.TID 0000.0001) // Build host:        faulks
(PID.TID 0000.0001) // Build date:        Wed Jul 12 23:46:32 EDT 2006
(PID.TID 0000.0001) 
(PID.TID 0000.0001) // =======================================================
(PID.TID 0000.0001) // Execution Environment parameter file "eedata"
(PID.TID 0000.0001) // =======================================================
(PID.TID 0000.0001) ># Example "eedata" file
(PID.TID 0000.0001) ># Lines beginning "#" are comments
(PID.TID 0000.0001) ># nTx - No. threads per process in X
(PID.TID 0000.0001) ># nTy - No. threads per process in Y
(PID.TID 0000.0001) > &EEPARMS
(PID.TID 0000.0001) > useCubedSphereExchange=.TRUE.,
(PID.TID 0000.0001) > nTx=1,
(PID.TID 0000.0001) > nTy=1,
(PID.TID 0000.0001) > &
(PID.TID 0000.0001) ># Note: Some systems use & as the
(PID.TID 0000.0001) ># namelist terminator. Other systems
(PID.TID 0000.0001) ># use a / character (as shown here).
(PID.TID 0000.0001) 
(PID.TID 0000.0001) // =======================================================
(PID.TID 0000.0001) // Computational Grid Specification ( see files "SIZE.h" )
(PID.TID 0000.0001) //                                  ( and "eedata"       )
(PID.TID 0000.0001) // =======================================================
(PID.TID 0000.0001)      nPx =    1 ; /* No. processes in X */
(PID.TID 0000.0001)      nPy =    1 ; /* No. processes in Y */
(PID.TID 0000.0001)      nSx =    6 ; /* No. tiles in X per process */
(PID.TID 0000.0001)      nSy =    1 ; /* No. tiles in Y per process */
(PID.TID 0000.0001)      sNx =   32 ; /* Tile size in X */
(PID.TID 0000.0001)      sNy =   32 ; /* Tile size in Y */
(PID.TID 0000.0001)      OLx =    3 ; /* Tile overlap distance in X */
(PID.TID 0000.0001)      OLy =    3 ; /* Tile overlap distance in Y */
(PID.TID 0000.0001)      nTx =    1 ; /* No. threads in X per process */
(PID.TID 0000.0001)      nTy =    1 ; /* No. threads in Y per process */
(PID.TID 0000.0001)       Nr =   15 ; /* No. levels in the vertical   */
(PID.TID 0000.0001)       nX =  192 ; /* Total domain size in X ( = nPx*nSx*sNx ) */
(PID.TID 0000.0001)       nY =   32 ; /* Total domain size in Y ( = nPy*nSy*sNy ) */
(PID.TID 0000.0001)   nTiles =    6 ; /* Total no. tiles per process ( = nSx*nSy ) */
(PID.TID 0000.0001)   nProcs =    1 ; /* Total no. processes ( = nPx*nPy ) */
(PID.TID 0000.0001) nThreads =    1 ; /* Total no. threads per process ( = nTx*nTy ) */
(PID.TID 0000.0001) usingMPI =    F ; /* Flag used to control whether MPI is in use */
(PID.TID 0000.0001)                   /*  note: To execute a program with MPI calls */
(PID.TID 0000.0001)                   /*  it must be launched appropriately e.g     */
(PID.TID 0000.0001)                   /*  "mpirun -np 64 ......"                    */
(PID.TID 0000.0001) useCoupler=   F ; /* Flag used to control communications with */
(PID.TID 0000.0001)                   /*  other model components, through a coupler */
(PID.TID 0000.0001) 
(PID.TID 0000.0001) // ======================================================
(PID.TID 0000.0001) // Mapping of tiles to threads
(PID.TID 0000.0001) // ======================================================
(PID.TID 0000.0001) // -o- Thread   1, tiles (   1:   6,   1:   1)
(PID.TID 0000.0001) 
(PID.TID 0000.0001) // ======================================================
(PID.TID 0000.0001) // Tile <-> Tile connectvity table
(PID.TID 0000.0001) // ======================================================
(PID.TID 0000.0001) // Tile number: 000001 (process no. = 000001)
(PID.TID 0000.0001) //        WEST: Tile = 000006, Process = 000001, Comm = put
(PID.TID 0000.0001) //                bi = 000006, bj = 000001
(PID.TID 0000.0001) //        EAST: Tile = 000002, Process = 000001, Comm = put
(PID.TID 0000.0001) //                bi = 000002, bj = 000001
(PID.TID 0000.0001) //       SOUTH: Tile = 000001, Process = 000001, Comm = put
(PID.TID 0000.0001) //                bi = 000001, bj = 000001
(PID.TID 0000.0001) //       NORTH: Tile = 000001, Process = 000001, Comm = put
(PID.TID 0000.0001) //                bi = 000001, bj = 000001
(PID.TID 0000.0001) // Tile number: 000002 (process no. = 000001)
(PID.TID 0000.0001) //        WEST: Tile = 000001, Process = 000001, Comm = put
(PID.TID 0000.0001) //                bi = 000001, bj = 000001
(PID.TID 0000.0001) //        EAST: Tile = 000003, Process = 000001, Comm = put
(PID.TID 0000.0001) //                bi = 000003, bj = 000001
(PID.TID 0000.0001) //       SOUTH: Tile = 000002, Process = 000001, Comm = put
(PID.TID 0000.0001) //                bi = 000002, bj = 000001
(PID.TID 0000.0001) //       NORTH: Tile = 000002, Process = 000001, Comm = put
(PID.TID 0000.0001) //                bi = 000002, bj = 000001
(PID.TID 0000.0001) // Tile number: 000003 (process no. = 000001)
(PID.TID 0000.0001) //        WEST: Tile = 000002, Process = 000001, Comm = put
(PID.TID 0000.0001) //                bi = 000002, bj = 000001
(PID.TID 0000.0001) //        EAST: Tile = 000004, Process = 000001, Comm = put
(PID.TID 0000.0001) //                bi = 000004, bj = 000001
(PID.TID 0000.0001) //       SOUTH: Tile = 000003, Process = 000001, Comm = put
(PID.TID 0000.0001) //                bi = 000003, bj = 000001
(PID.TID 0000.0001) //       NORTH: Tile = 000003, Process = 000001, Comm = put
(PID.TID 0000.0001) //                bi = 000003, bj = 000001
(PID.TID 0000.0001) // Tile number: 000004 (process no. = 000001)
(PID.TID 0000.0001) //        WEST: Tile = 000003, Process = 000001, Comm = put
(PID.TID 0000.0001) //                bi = 000003, bj = 000001
(PID.TID 0000.0001) //        EAST: Tile = 000005, Process = 000001, Comm = put
(PID.TID 0000.0001) //                bi = 000005, bj = 000001
(PID.TID 0000.0001) //       SOUTH: Tile = 000004, Process = 000001, Comm = put
(PID.TID 0000.0001) //                bi = 000004, bj = 000001
(PID.TID 0000.0001) //       NORTH: Tile = 000004, Process = 000001, Comm = put
(PID.TID 0000.0001) //                bi = 000004, bj = 000001
(PID.TID 0000.0001) // Tile number: 000005 (process no. = 000001)
(PID.TID 0000.0001) //        WEST: Tile = 000004, Process = 000001, Comm = put
(PID.TID 0000.0001) //                bi = 000004, bj = 000001
(PID.TID 0000.0001) //        EAST: Tile = 000006, Process = 000001, Comm = put
(PID.TID 0000.0001) //                bi = 000006, bj = 000001
(PID.TID 0000.0001) //       SOUTH: Tile = 000005, Process = 000001, Comm = put
(PID.TID 0000.0001) //                bi = 000005, bj = 000001
(PID.TID 0000.0001) //       NORTH: Tile = 000005, Process = 000001, Comm = put
(PID.TID 0000.0001) //                bi = 000005, bj = 000001
(PID.TID 0000.0001) // Tile number: 000006 (process no. = 000001)
(PID.TID 0000.0001) //        WEST: Tile = 000005, Process = 000001, Comm = put
(PID.TID 0000.0001) //                bi = 000005, bj = 000001
(PID.TID 0000.0001) //        EAST: Tile = 000001, Process = 000001, Comm = put
(PID.TID 0000.0001) //                bi = 000001, bj = 000001
(PID.TID 0000.0001) //       SOUTH: Tile = 000006, Process = 000001, Comm = put
(PID.TID 0000.0001) //                bi = 000006, bj = 000001
(PID.TID 0000.0001) //       NORTH: Tile = 000006, Process = 000001, Comm = put
(PID.TID 0000.0001) //                bi = 000006, bj = 000001
(PID.TID 0000.0001) 
(PID.TID 0000.0001) ===== W2 TILE TOPLOGY =====
(PID.TID 0000.0001)  TILE:    1
(PID.TID 0000.0001)       NEIGHBOUR    1 = TILE    3 Comm = PUT ( PROC =    1)
(PID.TID 0000.0001)       NEIGHBOUR    2 = TILE    6 Comm = PUT ( PROC =    1)
(PID.TID 0000.0001)       NEIGHBOUR    3 = TILE    2 Comm = PUT ( PROC =    1)
(PID.TID 0000.0001)       NEIGHBOUR    4 = TILE    5 Comm = PUT ( PROC =    1)
(PID.TID 0000.0001)  TILE:    2
(PID.TID 0000.0001)       NEIGHBOUR    1 = TILE    3 Comm = PUT ( PROC =    1)
(PID.TID 0000.0001)       NEIGHBOUR    2 = TILE    6 Comm = PUT ( PROC =    1)
(PID.TID 0000.0001)       NEIGHBOUR    3 = TILE    4 Comm = PUT ( PROC =    1)
(PID.TID 0000.0001)       NEIGHBOUR    4 = TILE    1 Comm = PUT ( PROC =    1)
(PID.TID 0000.0001)  TILE:    3
(PID.TID 0000.0001)       NEIGHBOUR    1 = TILE    5 Comm = PUT ( PROC =    1)
(PID.TID 0000.0001)       NEIGHBOUR    2 = TILE    2 Comm = PUT ( PROC =    1)
(PID.TID 0000.0001)       NEIGHBOUR    3 = TILE    4 Comm = PUT ( PROC =    1)
(PID.TID 0000.0001)       NEIGHBOUR    4 = TILE    1 Comm = PUT ( PROC =    1)
(PID.TID 0000.0001)  TILE:    4
(PID.TID 0000.0001)       NEIGHBOUR    1 = TILE    5 Comm = PUT ( PROC =    1)
(PID.TID 0000.0001)       NEIGHBOUR    2 = TILE    2 Comm = PUT ( PROC =    1)
(PID.TID 0000.0001)       NEIGHBOUR    3 = TILE    6 Comm = PUT ( PROC =    1)
(PID.TID 0000.0001)       NEIGHBOUR    4 = TILE    3 Comm = PUT ( PROC =    1)
(PID.TID 0000.0001)  TILE:    5
(PID.TID 0000.0001)       NEIGHBOUR    1 = TILE    1 Comm = PUT ( PROC =    1)
(PID.TID 0000.0001)       NEIGHBOUR    2 = TILE    4 Comm = PUT ( PROC =    1)
(PID.TID 0000.0001)       NEIGHBOUR    3 = TILE    6 Comm = PUT ( PROC =    1)
(PID.TID 0000.0001)       NEIGHBOUR    4 = TILE    3 Comm = PUT ( PROC =    1)
(PID.TID 0000.0001)  TILE:    6
(PID.TID 0000.0001)       NEIGHBOUR    1 = TILE    1 Comm = PUT ( PROC =    1)
(PID.TID 0000.0001)       NEIGHBOUR    2 = TILE    4 Comm = PUT ( PROC =    1)
(PID.TID 0000.0001)       NEIGHBOUR    3 = TILE    2 Comm = PUT ( PROC =    1)
(PID.TID 0000.0001)       NEIGHBOUR    4 = TILE    5 Comm = PUT ( PROC =    1)
(PID.TID 0000.0001) Tile    1(proc =   1) sends points i=  35:  -2, j=  30:  32
(PID.TID 0000.0001)                          to points i=  -2:   0, j=  -2:  35 in tile    3(proc =   1)
(PID.TID 0000.0001) Tile    1(proc =   1) sends points i=  -2:  35, j=   1:   3
(PID.TID 0000.0001)                          to points i=  -2:  35, j=  33:  35 in tile    6(proc =   1)
(PID.TID 0000.0001) Tile    1(proc =   1) sends points i=  30:  32, j=  -2:  35
(PID.TID 0000.0001)                          to points i=  -2:   0, j=  -2:  35 in tile    2(proc =   1)
(PID.TID 0000.0001) Tile    1(proc =   1) sends points i=   1:   3, j=  35:  -2
(PID.TID 0000.0001)                          to points i=  -2:  35, j=  33:  35 in tile    5(proc =   1)
(PID.TID 0000.0001) Tile    2(proc =   1) sends points i=  -2:  35, j=  30:  32
(PID.TID 0000.0001)                          to points i=  -2:  35, j=  -2:   0 in tile    3(proc =   1)
(PID.TID 0000.0001) Tile    2(proc =   1) sends points i=  35:  -2, j=   1:   3
(PID.TID 0000.0001)                          to points i=  33:  35, j=  -2:  35 in tile    6(proc =   1)
(PID.TID 0000.0001) Tile    2(proc =   1) sends points i=  30:  32, j=  35:  -2
(PID.TID 0000.0001)                          to points i=  -2:  35, j=  -2:   0 in tile    4(proc =   1)
(PID.TID 0000.0001) Tile    2(proc =   1) sends points i=   1:   3, j=  -2:  35
(PID.TID 0000.0001)                          to points i=  33:  35, j=  -2:  35 in tile    1(proc =   1)
(PID.TID 0000.0001) Tile    3(proc =   1) sends points i=  35:  -2, j=  30:  32
(PID.TID 0000.0001)                          to points i=  -2:   0, j=  -2:  35 in tile    5(proc =   1)
(PID.TID 0000.0001) Tile    3(proc =   1) sends points i=  -2:  35, j=   1:   3
(PID.TID 0000.0001)                          to points i=  -2:  35, j=  33:  35 in tile    2(proc =   1)
(PID.TID 0000.0001) Tile    3(proc =   1) sends points i=  30:  32, j=  -2:  35
(PID.TID 0000.0001)                          to points i=  -2:   0, j=  -2:  35 in tile    4(proc =   1)
(PID.TID 0000.0001) Tile    3(proc =   1) sends points i=   1:   3, j=  35:  -2
(PID.TID 0000.0001)                          to points i=  -2:  35, j=  33:  35 in tile    1(proc =   1)
(PID.TID 0000.0001) Tile    4(proc =   1) sends points i=  -2:  35, j=  30:  32
(PID.TID 0000.0001)                          to points i=  -2:  35, j=  -2:   0 in tile    5(proc =   1)
(PID.TID 0000.0001) Tile    4(proc =   1) sends points i=  35:  -2, j=   1:   3
(PID.TID 0000.0001)                          to points i=  33:  35, j=  -2:  35 in tile    2(proc =   1)
(PID.TID 0000.0001) Tile    4(proc =   1) sends points i=  30:  32, j=  35:  -2
(PID.TID 0000.0001)                          to points i=  -2:  35, j=  -2:   0 in tile    6(proc =   1)
(PID.TID 0000.0001) Tile    4(proc =   1) sends points i=   1:   3, j=  -2:  35
(PID.TID 0000.0001)                          to points i=  33:  35, j=  -2:  35 in tile    3(proc =   1)
(PID.TID 0000.0001) Tile    5(proc =   1) sends points i=  35:  -2, j=  30:  32
(PID.TID 0000.0001)                          to points i=  -2:   0, j=  -2:  35 in tile    1(proc =   1)
(PID.TID 0000.0001) Tile    5(proc =   1) sends points i=  -2:  35, j=   1:   3
(PID.TID 0000.0001)                          to points i=  -2:  35, j=  33:  35 in tile    4(proc =   1)
(PID.TID 0000.0001) Tile    5(proc =   1) sends points i=  30:  32, j=  -2:  35
(PID.TID 0000.0001)                          to points i=  -2:   0, j=  -2:  35 in tile    6(proc =   1)
(PID.TID 0000.0001) Tile    5(proc =   1) sends points i=   1:   3, j=  35:  -2
(PID.TID 0000.0001)                          to points i=  -2:  35, j=  33:  35 in tile    3(proc =   1)
(PID.TID 0000.0001) Tile    6(proc =   1) sends points i=  -2:  35, j=  30:  32
(PID.TID 0000.0001)                          to points i=  -2:  35, j=  -2:   0 in tile    1(proc =   1)
(PID.TID 0000.0001) Tile    6(proc =   1) sends points i=  35:  -2, j=   1:   3
(PID.TID 0000.0001)                          to points i=  33:  35, j=  -2:  35 in tile    4(proc =   1)
(PID.TID 0000.0001) Tile    6(proc =   1) sends points i=  30:  32, j=  35:  -2
(PID.TID 0000.0001)                          to points i=  -2:  35, j=  -2:   0 in tile    2(proc =   1)
(PID.TID 0000.0001) Tile    6(proc =   1) sends points i=   1:   3, j=  -2:  35
(PID.TID 0000.0001)                          to points i=  33:  35, j=  -2:  35 in tile    5(proc =   1)
(PID.TID 0000.0001) Tile    1(proc =   1)recv to points i=  -2:  35, j=  33:  35from tile   3(proc =   1)
(PID.TID 0000.0001) Tile    1(proc =   1)recv to points i=  -2:  35, j=  -2:   0from tile   6(proc =   1)
(PID.TID 0000.0001) Tile    1(proc =   1)recv to points i=  33:  35, j=  -2:  35from tile   2(proc =   1)
(PID.TID 0000.0001) Tile    1(proc =   1)recv to points i=  -2:   0, j=  -2:  35from tile   5(proc =   1)
(PID.TID 0000.0001) Tile    2(proc =   1)recv to points i=  -2:  35, j=  33:  35from tile   3(proc =   1)
(PID.TID 0000.0001) Tile    2(proc =   1)recv to points i=  -2:  35, j=  -2:   0from tile   6(proc =   1)
(PID.TID 0000.0001) Tile    2(proc =   1)recv to points i=  33:  35, j=  -2:  35from tile   4(proc =   1)
(PID.TID 0000.0001) Tile    2(proc =   1)recv to points i=  -2:   0, j=  -2:  35from tile   1(proc =   1)
(PID.TID 0000.0001) Tile    3(proc =   1)recv to points i=  -2:  35, j=  33:  35from tile   5(proc =   1)
(PID.TID 0000.0001) Tile    3(proc =   1)recv to points i=  -2:  35, j=  -2:   0from tile   2(proc =   1)
(PID.TID 0000.0001) Tile    3(proc =   1)recv to points i=  33:  35, j=  -2:  35from tile   4(proc =   1)
(PID.TID 0000.0001) Tile    3(proc =   1)recv to points i=  -2:   0, j=  -2:  35from tile   1(proc =   1)
(PID.TID 0000.0001) Tile    4(proc =   1)recv to points i=  -2:  35, j=  33:  35from tile   5(proc =   1)
(PID.TID 0000.0001) Tile    4(proc =   1)recv to points i=  -2:  35, j=  -2:   0from tile   2(proc =   1)
(PID.TID 0000.0001) Tile    4(proc =   1)recv to points i=  33:  35, j=  -2:  35from tile   6(proc =   1)
(PID.TID 0000.0001) Tile    4(proc =   1)recv to points i=  -2:   0, j=  -2:  35from tile   3(proc =   1)
(PID.TID 0000.0001) Tile    5(proc =   1)recv to points i=  -2:  35, j=  33:  35from tile   1(proc =   1)
(PID.TID 0000.0001) Tile    5(proc =   1)recv to points i=  -2:  35, j=  -2:   0from tile   4(proc =   1)
(PID.TID 0000.0001) Tile    5(proc =   1)recv to points i=  33:  35, j=  -2:  35from tile   6(proc =   1)
(PID.TID 0000.0001) Tile    5(proc =   1)recv to points i=  -2:   0, j=  -2:  35from tile   3(proc =   1)
(PID.TID 0000.0001) Tile    6(proc =   1)recv to points i=  -2:  35, j=  33:  35from tile   1(proc =   1)
(PID.TID 0000.0001) Tile    6(proc =   1)recv to points i=  -2:  35, j=  -2:   0from tile   4(proc =   1)
(PID.TID 0000.0001) Tile    6(proc =   1)recv to points i=  33:  35, j=  -2:  35from tile   2(proc =   1)
(PID.TID 0000.0001) Tile    6(proc =   1)recv to points i=  -2:   0, j=  -2:  35from tile   5(proc =   1)
(PID.TID 0000.0001) // =======================================================
(PID.TID 0000.0001) // Model parameter file "data"
(PID.TID 0000.0001) // =======================================================
(PID.TID 0000.0001) ># ====================
(PID.TID 0000.0001) ># | Model parameters |
(PID.TID 0000.0001) ># ====================
(PID.TID 0000.0001) >#
(PID.TID 0000.0001) ># Continuous equation parameters
(PID.TID 0000.0001) > &PARM01
(PID.TID 0000.0001) > tRef=15*20.,
(PID.TID 0000.0001) > sRef=15*35.,
(PID.TID 0000.0001) > viscAh =1.E5,
(PID.TID 0000.0001) >#- biharmonic Viscosity: 3.e15 is close to the stability limit with deltaTmom=20mn
(PID.TID 0000.0001) > viscA4 =3.E14,
(PID.TID 0000.0001) > viscAr =1.E-3,
(PID.TID 0000.0001) > diffKhT=0.,
(PID.TID 0000.0001) > diffK4T=0.,
(PID.TID 0000.0001) > diffKrT=3.E-5,
(PID.TID 0000.0001) > diffKhS=0.,
(PID.TID 0000.0001) > diffK4S=0.,
(PID.TID 0000.0001) > diffKrS=3.E-5,
(PID.TID 0000.0001) > ivdc_kappa=10.,
(PID.TID 0000.0001) > implicitDiffusion=.TRUE.,
(PID.TID 0000.0001) > gravity=9.81,
(PID.TID 0000.0001) > rhonil=1035.,
(PID.TID 0000.0001) > rhoConstFresh=1000.,
(PID.TID 0000.0001) > eosType='JMD95Z',
(PID.TID 0000.0001) > staggerTimeStep=.TRUE.,
(PID.TID 0000.0001) > vectorInvariantMomentum=.TRUE.,
(PID.TID 0000.0001) > implicitFreeSurface=.TRUE.,
(PID.TID 0000.0001) > exactConserv=.TRUE.,
(PID.TID 0000.0001) > nonHydrostatic=.TRUE.,
(PID.TID 0000.0001) > useNHMTerms=.TRUE.,
(PID.TID 0000.0001) > hFacInf=0.2,
(PID.TID 0000.0001) > hFacSup=2.0,
(PID.TID 0000.0001) > useRealFreshWaterFlux=.TRUE.,
(PID.TID 0000.0001) > allowFreezing=.TRUE.,
(PID.TID 0000.0001) > hFacMin=.1,
(PID.TID 0000.0001) > hFacMinDr=20.,
(PID.TID 0000.0001) > readBinaryPrec=64,
(PID.TID 0000.0001) > &
(PID.TID 0000.0001) >
(PID.TID 0000.0001) ># Elliptic solver parameters
(PID.TID 0000.0001) > &PARM02
(PID.TID 0000.0001) > cg2dMaxIters=200,
(PID.TID 0000.0001) >#cg2dTargetResidual=1.E-9,
(PID.TID 0000.0001) > cg2dTargetResWunit=1.E-14,
(PID.TID 0000.0001) > cg3dMaxIters=60,
(PID.TID 0000.0001) > cg3dTargetResidual=1.E-9,
(PID.TID 0000.0001) > &
(PID.TID 0000.0001) >
(PID.TID 0000.0001) ># Time stepping parameters
(PID.TID 0000.0001) > &PARM03
(PID.TID 0000.0001) > nIter0=86400,
(PID.TID 0000.0001) > nTimeSteps=10,
(PID.TID 0000.0001) > deltaTClock =3600.,
(PID.TID 0000.0001) > abEps = 0.12,
(PID.TID 0000.0001) > forcing_In_AB=.FALSE.,
(PID.TID 0000.0001) > pChkptFreq  =31104000.,
(PID.TID 0000.0001) >#chkptFreq   =311040000.,
(PID.TID 0000.0001) > taveFreq    =31104000.,
(PID.TID 0000.0001) > dumpFreq    =31104000.,
(PID.TID 0000.0001) > monitorFreq =86400.,
(PID.TID 0000.0001) > periodicExternalForcing=.TRUE.,
(PID.TID 0000.0001) > externForcingPeriod=2592000.,
(PID.TID 0000.0001) > externForcingCycle=31104000.,
(PID.TID 0000.0001) ># 2 months restoring timescale for temperature
(PID.TID 0000.0001) > tauThetaClimRelax = 5184000.,
(PID.TID 0000.0001) ># 2yrs restoring timescale for salinity
(PID.TID 0000.0001) > tauSaltClimRelax = 62208000.,
(PID.TID 0000.0001) > monitorFreq =1.,
(PID.TID 0000.0001) > &
(PID.TID 0000.0001) >
(PID.TID 0000.0001) ># Gridding parameters
(PID.TID 0000.0001) > &PARM04
(PID.TID 0000.0001) > usingCurvilinearGrid=.TRUE.,
(PID.TID 0000.0001) > horizGridFile='grid_cs32',
(PID.TID 0000.0001) > delR= 50., 70., 100., 140., 190.,
(PID.TID 0000.0001) >       240., 290., 340., 390., 440.,
(PID.TID 0000.0001) >       490., 540., 590., 640., 690.,
(PID.TID 0000.0001) > &
(PID.TID 0000.0001) >
(PID.TID 0000.0001) ># Input datasets
(PID.TID 0000.0001) > &PARM05
(PID.TID 0000.0001) > bathyFile      ='bathy_Hmin50.bin',
(PID.TID 0000.0001) > hydrogThetaFile='lev_T_cs_15k.bin',
(PID.TID 0000.0001) > hydrogSaltFile ='lev_S_cs_15k.bin',
(PID.TID 0000.0001) > zonalWindFile  ='trenberth_taux.bin',
(PID.TID 0000.0001) > meridWindFile  ='trenberth_tauy.bin',
(PID.TID 0000.0001) > thetaClimFile  ='lev_surfT_cs_12m.bin',
(PID.TID 0000.0001) > saltClimFile   ='lev_surfS_cs_12m.bin',
(PID.TID 0000.0001) > surfQFile      ='shiQnet_cs32.bin',
(PID.TID 0000.0001) > EmPmRFile      ='shiEmPR_cs32.bin',
(PID.TID 0000.0001) > &
(PID.TID 0000.0001) 
(PID.TID 0000.0001) S/R INI_PARMS ; starts to read PARM01
(PID.TID 0000.0001) S/R INI_PARMS ; read PARM01 : OK
(PID.TID 0000.0001) S/R INI_PARMS ; starts to read PARM02
(PID.TID 0000.0001) S/R INI_PARMS ; read PARM02 : OK
(PID.TID 0000.0001) S/R INI_PARMS ; starts to read PARM03
(PID.TID 0000.0001) S/R INI_PARMS ; read PARM03 : OK
(PID.TID 0000.0001) S/R INI_PARMS ; starts to read PARM04
(PID.TID 0000.0001) S/R INI_PARMS ; read PARM04 : OK
(PID.TID 0000.0001) S/R INI_PARMS ; starts to read PARM05
(PID.TID 0000.0001) S/R INI_PARMS ; read PARM05 : OK
(PID.TID 0000.0001)  PACKAGES_BOOT: opening data.pkg
(PID.TID 0000.0001)  OPEN_COPY_DATA_FILE: opening file data.pkg
(PID.TID 0000.0001) // =======================================================
(PID.TID 0000.0001) // Parameter file "data.pkg"
(PID.TID 0000.0001) // =======================================================
(PID.TID 0000.0001) ># Packages
(PID.TID 0000.0001) > &PACKAGES
(PID.TID 0000.0001) > useGMRedi=.TRUE.,
(PID.TID 0000.0001) >#useBulkforce=.TRUE.,
(PID.TID 0000.0001) >#useThSIce=.TRUE.,
(PID.TID 0000.0001) >#useDiagnostics=.TRUE.,
(PID.TID 0000.0001) >#useMNC=.TRUE.,
(PID.TID 0000.0001) > &
(PID.TID 0000.0001) 
(PID.TID 0000.0001)  PACKAGES_BOOT: finished reading data.pkg
(PID.TID 0000.0001)  GM_READPARMS: opening data.gmredi
(PID.TID 0000.0001)  OPEN_COPY_DATA_FILE: opening file data.gmredi
(PID.TID 0000.0001) // =======================================================
(PID.TID 0000.0001) // Parameter file "data.gmredi"
(PID.TID 0000.0001) // =======================================================
(PID.TID 0000.0001) ># GM+Redi package parameters:
(PID.TID 0000.0001) >
(PID.TID 0000.0001) >#-from MOM :
(PID.TID 0000.0001) ># GM_background_K: 	G & Mc.W  diffusion coefficient
(PID.TID 0000.0001) ># GM_maxSlope    :	max slope of isopycnals
(PID.TID 0000.0001) ># GM_Scrit       :	transition for scaling diffusion coefficient
(PID.TID 0000.0001) ># GM_Sd          :	half width scaling for diffusion coefficient
(PID.TID 0000.0001) ># GM_taper_scheme:	slope clipping or one of the tapering schemes
(PID.TID 0000.0001) ># GM_Kmin_horiz  :	horizontal diffusion minimum value
(PID.TID 0000.0001) >
(PID.TID 0000.0001) >#-Option parameters (needs to "define" options in GMREDI_OPTIONS.h")
(PID.TID 0000.0001) ># GM_isopycK     :	isopycnal diffusion coefficient (default=GM_background_K)
(PID.TID 0000.0001) ># GM_AdvForm     :	turn on GM Advective form       (default=Skew flux form)
(PID.TID 0000.0001) >
(PID.TID 0000.0001) > &GM_PARM01
(PID.TID 0000.0001) >  GM_background_K    = 800.,
(PID.TID 0000.0001) >  GM_taper_scheme    = 'gkw91',
(PID.TID 0000.0001) >  GM_maxSlope        = 1.e-2,
(PID.TID 0000.0001) >  GM_Kmin_horiz      = 50.,
(PID.TID 0000.0001) >  GM_Scrit           = 4.e-3,
(PID.TID 0000.0001) >  GM_Sd              = 1.e-3,
(PID.TID 0000.0001) ># GM_Visbeck_alpha   = 0.,
(PID.TID 0000.0001) ># GM_Visbeck_length  = 2.e+5,
(PID.TID 0000.0001) ># GM_Visbeck_depth   = 1.e+3,
(PID.TID 0000.0001) ># GM_Visbeck_maxval_K= 2.5e+3,
(PID.TID 0000.0001) > &
(PID.TID 0000.0001) >
(PID.TID 0000.0001) >
(PID.TID 0000.0001) 
(PID.TID 0000.0001)  GM_READPARMS: finished reading data.gmredi
(PID.TID 0000.0001) SET_PARMS: done
(PID.TID 0000.0001) tile:   1 ; Read from file grid_cs32.face001.bin
(PID.TID 0000.0001)   => XC YC DXF DYF RA XG YG DXV DYU RAZ DXC DYC RAW RAS DXG DYG AngleCS AngleSN
(PID.TID 0000.0001) tile:   2 ; Read from file grid_cs32.face002.bin
(PID.TID 0000.0001)   => XC YC DXF DYF RA XG YG DXV DYU RAZ DXC DYC RAW RAS DXG DYG AngleCS AngleSN
(PID.TID 0000.0001) tile:   3 ; Read from file grid_cs32.face003.bin
(PID.TID 0000.0001)   => XC YC DXF DYF RA XG YG DXV DYU RAZ DXC DYC RAW RAS DXG DYG AngleCS AngleSN
(PID.TID 0000.0001) tile:   4 ; Read from file grid_cs32.face004.bin
(PID.TID 0000.0001)   => XC YC DXF DYF RA XG YG DXV DYU RAZ DXC DYC RAW RAS DXG DYG AngleCS AngleSN
(PID.TID 0000.0001) tile:   5 ; Read from file grid_cs32.face005.bin
(PID.TID 0000.0001)   => XC YC DXF DYF RA XG YG DXV DYU RAZ DXC DYC RAW RAS DXG DYG AngleCS AngleSN
(PID.TID 0000.0001) tile:   6 ; Read from file grid_cs32.face006.bin
(PID.TID 0000.0001)   => XC YC DXF DYF RA XG YG DXV DYU RAZ DXC DYC RAW RAS DXG DYG AngleCS AngleSN
(PID.TID 0000.0001) %MON XC_max                       =   1.7854351589505E+02
(PID.TID 0000.0001) %MON XC_min                       =  -1.7854351589505E+02
(PID.TID 0000.0001) %MON XC_mean                      =  -4.6999441375798E-15
(PID.TID 0000.0001) %MON XC_sd                        =   1.0355545336287E+02
(PID.TID 0000.0001) %MON XG_max                       =   1.8000000000000E+02
(PID.TID 0000.0001) %MON XG_min                       =  -1.7708797161002E+02
(PID.TID 0000.0001) %MON XG_mean                      =   1.8796250616675E+00
(PID.TID 0000.0001) %MON XG_sd                        =   1.0410625309932E+02
(PID.TID 0000.0001) %MON DXC_max                      =   3.2375185836900E+05
(PID.TID 0000.0001) %MON DXC_min                      =   1.1142031410131E+05
(PID.TID 0000.0001) %MON DXC_mean                     =   2.8605689051214E+05
(PID.TID 0000.0001) %MON DXC_sd                       =   3.4042087138252E+04
(PID.TID 0000.0001) %MON DXF_max                      =   3.2369947500827E+05
(PID.TID 0000.0001) %MON DXF_min                      =   1.2020820513318E+05
(PID.TID 0000.0001) %MON DXF_mean                     =   2.8605437324820E+05
(PID.TID 0000.0001) %MON DXF_sd                       =   3.4050524252539E+04
(PID.TID 0000.0001) %MON DXG_max                      =   3.2375195872773E+05
(PID.TID 0000.0001) %MON DXG_min                      =   1.0098378008791E+05
(PID.TID 0000.0001) %MON DXG_mean                     =   2.8603818508931E+05
(PID.TID 0000.0001) %MON DXG_sd                       =   3.4140406908005E+04
(PID.TID 0000.0001) %MON DXV_max                      =   3.2380418162750E+05
(PID.TID 0000.0001) %MON DXV_min                      =   8.0152299824136E+04
(PID.TID 0000.0001) %MON DXV_mean                     =   2.8603970633619E+05
(PID.TID 0000.0001) %MON DXV_sd                       =   3.4145142117723E+04
(PID.TID 0000.0001) %MON YC_max                       =   8.7940663871962E+01
(PID.TID 0000.0001) %MON YC_min                       =  -8.7940663871962E+01
(PID.TID 0000.0001) %MON YC_mean                      =   0.0000000000000E+00
(PID.TID 0000.0001) %MON YC_sd                        =   3.8676242969072E+01
(PID.TID 0000.0001) %MON YG_max                       =   9.0000000000000E+01
(PID.TID 0000.0001) %MON YG_min                       =  -9.0000000000000E+01
(PID.TID 0000.0001) %MON YG_mean                      =  -1.2094344438470E-15
(PID.TID 0000.0001) %MON YG_sd                        =   3.9086186579984E+01
(PID.TID 0000.0001) %MON DYC_max                      =   3.2375185836900E+05
(PID.TID 0000.0001) %MON DYC_min                      =   1.1142031410131E+05
(PID.TID 0000.0001) %MON DYC_mean                     =   2.8605689051214E+05
(PID.TID 0000.0001) %MON DYC_sd                       =   3.4042087138252E+04
(PID.TID 0000.0001) %MON DYF_max                      =   3.2369947500827E+05
(PID.TID 0000.0001) %MON DYF_min                      =   1.2020820513318E+05
(PID.TID 0000.0001) %MON DYF_mean                     =   2.8605437324820E+05
(PID.TID 0000.0001) %MON DYF_sd                       =   3.4050524252539E+04
(PID.TID 0000.0001) %MON DYG_max                      =   3.2375195872773E+05
(PID.TID 0000.0001) %MON DYG_min                      =   1.0098378008791E+05
(PID.TID 0000.0001) %MON DYG_mean                     =   2.8603818508931E+05
(PID.TID 0000.0001) %MON DYG_sd                       =   3.4140406908005E+04
(PID.TID 0000.0001) %MON DYU_max                      =   3.2380418162750E+05
(PID.TID 0000.0001) %MON DYU_min                      =   8.0152299824136E+04
(PID.TID 0000.0001) %MON DYU_mean                     =   2.8603970633619E+05
(PID.TID 0000.0001) %MON DYU_sd                       =   3.4145142117723E+04
(PID.TID 0000.0001) %MON RA_max                       =   1.0479260248419E+11
(PID.TID 0000.0001) %MON RA_min                       =   1.4019007022556E+10
(PID.TID 0000.0001) %MON RA_mean                      =   8.2992246709265E+10
(PID.TID 0000.0001) %MON RA_sd                        =   1.7509089299457E+10
(PID.TID 0000.0001) %MON RAW_max                      =   1.0480965274559E+11
(PID.TID 0000.0001) %MON RAW_min                      =   1.2166903467143E+10
(PID.TID 0000.0001) %MON RAW_mean                     =   8.2992246709235E+10
(PID.TID 0000.0001) %MON RAW_sd                       =   1.7481917919656E+10
(PID.TID 0000.0001) %MON RAS_max                      =   1.0480965274559E+11
(PID.TID 0000.0001) %MON RAS_min                      =   1.2166903467143E+10
(PID.TID 0000.0001) %MON RAS_mean                     =   8.2992246709235E+10
(PID.TID 0000.0001) %MON RAS_sd                       =   1.7481917919656E+10
(PID.TID 0000.0001) %MON RAZ_max                      =   1.0484349334619E+11
(PID.TID 0000.0001) %MON RAZ_min                      =   8.8317900612505E+09
(PID.TID 0000.0001) %MON RAZ_mean                     =   8.2992246709235E+10
(PID.TID 0000.0001) %MON RAZ_sd                       =   1.7482297311044E+10
(PID.TID 0000.0001) %MON AngleCS_max                  =   9.9999994756719E-01
(PID.TID 0000.0001) %MON AngleCS_min                  =  -9.9968286884824E-01
(PID.TID 0000.0001) %MON AngleCS_mean                 =   3.3078850405987E-01
(PID.TID 0000.0001) %MON AngleCS_sd                   =   6.2496317138039E-01
(PID.TID 0000.0001) %MON AngleSN_max                  =   9.9968286884824E-01
(PID.TID 0000.0001) %MON AngleSN_min                  =  -9.9999994756719E-01
(PID.TID 0000.0001) %MON AngleSN_mean                 =  -3.3078850405987E-01
(PID.TID 0000.0001) %MON AngleSN_sd                   =   6.2496317138039E-01
(PID.TID 0000.0001)  MDSREADFIELD: opening global file: bathy_Hmin50.bin
(PID.TID 0000.0001) // =======================================================
(PID.TID 0000.0001) // Field Bottom depths (ini_depths) at iteration          1
(PID.TID 0000.0001) // CMIN =         -6.004000000000000E+03
(PID.TID 0000.0001) // CMAX =         -5.000000000000000E+01
(PID.TID 0000.0001) // CINT =          2.205185185185185E+02
(PID.TID 0000.0001) // SYMBOLS (CMIN->CMAX): -abcdefghijklmnopqrstuvwxyz+
(PID.TID 0000.0001) //                  0.0: .
(PID.TID 0000.0001) // RANGE I (Lo:Hi:Step):(  -2: 195:   1)
(PID.TID 0000.0001) // RANGE J (Lo:Hi:Step):(  35:  -2:  -1)
(PID.TID 0000.0001) // RANGE K (Lo:Hi:Step):(   1:   1:   1)
(PID.TID 0000.0001) // =======================================================
(PID.TID 0000.0001) K =   1
(PID.TID 0000.0001) //                I=7       I=17      I=27      I=31      I=41      I=51      I=61      I=65      I=75      I=85      I=95      I=99      I=109     I=119     I=129     I=133     I=143     I=153     I=163     I=167     I=177     I=187
(PID.TID 0000.0001) // |--J--|**0123456|890123456|890123456|890123450|234567890|234567890|234567890|234567234|678901234|678901234|678901234|678945678|012345678|012345678|012345678|016789012|456789012|456789012|456789012|890123456|890123456|890123456|89012345
(PID.TID 0000.0001) //     35 fefcdfeehhimnihix+..........zrv......................................mrpzsrrdedgedccdfeeeiv..............igggffeeggffeegfgggfeeeefgggfffgiiiijkiiiiigghinkjiknlieebbceeigghky...rxwnkiiifeejiffeejiffhhiiiimnmljeddddfiwjhhnpddhtedd
(PID.TID 0000.0001) //     34 ddeedeefhjmongffn++........tqqt.....................................wmrp+xppeeefeeecceeeiv+..............jfeededdfededdffgffeeeeeeggggffgiiiiikihhhhhghikiihiknkifeeeefifhhl.......zpojiigehgeigehgeefggghiknkkhffddfeeemihjdddhtihh
(PID.TID 0000.0001) //     33 ceffeffghlpomigffg+.......+t........................................ytsxzz+zgfggedcccddgv+...............kgeedddefedddeffggfeddeeegggggfgiiijjjhhhgggghgihggijknkiiigijffiiw........zpkkjheeeejheeeeeeefggiknkihhgfffeefmhiedeeiqqtt
(PID.TID 0000.0001) //     32 degghijkmrrnjidemrz..w.+..+.......................................++..u+....jigfecccdegv+................mgfeeddefeeddeffgfedddeeefggggghiiijjihhhgffffffefgfgiijkkkkkgfhkx.........+zpljheeedjheeedddeefffikmnkhffffffeeefeegimnpsr
(PID.TID 0000.0001) //     31 eefiikmoqprphedeu..voss+t.z.......................................+++++.zutwkiheddgigiv+................+nmgfeddeefeddeefffeddceeeegggghiiinkihhhhffffeeedeeeefffgfhiiefix+..........++vmiedddmieddddddddefiiknljiiiffebbegikmnkkkkk
(PID.TID 0000.0001) //     30 degjknnmmmkifegfx.yoorzrlnwport...................................+++++xnhiunkifefgnsx+++...............onkjhedddehedddefefeccceedegggghhgmohgghigeeeedefdcdedddeeeefeeeo..............+wlfdddwlfddddddccefghikponjkkhebfkpppononjii
(PID.TID 0000.0001) //     29 dfiknlkiilgddhigpzy...+yloqoovz....................................+++yrggkrnmjfeefjz+......++.........+oojihfdccdhfdccdeeedbccddddfggggffkphggigeddddddggccecccbbbdddei+...............+rhdcd+rhdcdddcccdhghhjmponjlljfgikrpmmlonig
(PID.TID 0000.0001) //     28 dfinkigffhddeghl........u..........................................+++xjifinmokgfefkxxz.....+++........+pmihhgdccchgdcccbeedbccccddeggfdefpigghifedddcccnicccccb--accdgm+................+mdbb.+mdbbddadeiiggghjigddehgddfikrpnkjklk
(PID.TID 0000.0001) //     27 efjkieeeeedefkoy............................+++....................++wpffefnmqmhhhginorxy....++........+nkihhffdcchffdccbdccccccceeegffdffikggggfeddccccsgdccdcb--adcktx.................++hba.++hbaa-aokokmgggedccbddbbekjikpmjhghj
(PID.TID 0000.0001) //     26 egkifeb--cdeilw.............................++ty...................+urcigeenmprljhgghikkmtz++++........znkigffedcbffedcbcccdcddccddegfeeddghggffedcccccdxiedefedaaabwww...................+wda..+wda--ononlmjgddddcbdcbcflliikkhedde
(PID.TID 0000.0001) //     25 efkiebbbdcdfk+..................x.....x.......olp+................+xdbcabefjkrrpmihiklllloy.++.........zmjigeddccbeddccbccbdgeeccdeffgddddffffedccbbddde+vgdeeffdbbbuhk...................++rg..++rghspiklnlfeedekgeeddccehhghhfeddf
(PID.TID 0000.0001) //     24 ehkiebbefefhl...................x.....x.......nlmp+.....++.....++zpqdbb--fegipnoomkkpnmtttx............rkihfedddbbedddbbaabeggfbcdhhidddddeffeddccbcdddf++vgeeeedcbcwho....................++y...++yzwpijnnfeeeehjmhfeedccdggggfeefg
(PID.TID 0000.0001) //     23 fikgecdefgjlm...................zz....zz.....pkjklz....urr.....+vljzjgcaaeeffhjmnnmmoqnt..xvv..........+ihgeddcccaddcccaaabeggcbbdiidddgiieeeeddcccdddff+.+viedccccn.ix...........t.........++....++zzmilnifgffqz..vnmggdddffgpigggg
(PID.TID 0000.0001) //     22 eikieebbceijl....................zz..s.zz..somiijjo...onop+....+tiizydbaeeefeeiigiklosor...yvv.++.......zugfedcbbaedcbbaabcegfbbcggeddgiihbdedcccccdddde...+vifceddrwjj..........gfihhj......+.....++zjjrvkhhikz......zqfedfgiwuiihh
(PID.TID 0000.0001) //     21 eegjfebbbceeh.....................yttu..yttunjhhhhpz..lmmnu+....nilzzibaaegigddgfhjnnqur....yy++++zt.....++fedcbbbedcbbbabcfggcddedbcbcgicbcdbbcbccdddde....+vqlgfy.wpjr.......+lgfghhhhixz...ixz....+kjp.wmnpy.........jgfgilxskjii
(PID.TID 0000.0001) //     20 efffiifeecdeh+.......................n.....ngjigggkr.+kklnoz++.+qrvxyzaaehjmfeeffiouppyxz......+yvkky....++jecaaabecaaabaacgggfebebbbbcegeeebabbbdefdddd.......ywyy.nvnq.nw...nfgjggiihiiiknyxiiknyx+iiim.+yyzy.........ojhkowtmlmnn
(PID.TID 0000.0001) //     19 oihffgjkihhjffu......................d.....ddikiggipszjjkmty.+++tt+nr.bbhginxumfnxoptr.ww......tmkjju...+++udcaaabdcaaabaadfgeicbbbccccdhggcaacbbbdgnddd..........wpkzy.unnrkhgffgkiiiijiikliiiikliihfegjy..yz..........yljsqqkklmnk
(PID.TID 0000.0001) //     18 .xkihgimkihjeegkwnsiqz..............me....meefikkjipmhhiiju..++++..jjnighghm..rg++.zxxutuuz..zttmkpu++++++zkica--bica--bcbcfddidbabcccbbhirrrdeaabdisfdd........+mmskx.wronokhggfghkjjjiijljhgijljhgfeefhky.............zlnsgghikmmk
(PID.TID 0000.0001) //     17 .+xihhikmjjfeeffeeefio.............lfe...lfeeffikjiphggghhgy..++...pprwjihhmy.z++..+ztllnnnnnmnnrmqt+++.++kjlcaaablcaaabhcddbdhdcabcccbciqrrqrrpcbjnwjhd........+om+..yllqppkihigghikkjijkjigfjkjigfedefgjy..............okhgghikmnj
(PID.TID 0000.0001) //     16 ...wlkhgghffgikifeegin............lgee..lgeeggggikimffffgggg+.++..++ypwz.ummov....++zytnnnnnmkiimnqz++...kjjlcaabclcaabchedbbiheaabbcdcefpqqkijjmpwowpvf.........rkv..jjkmqmjiiihhijkkkkllhhgellhhgeedeefgy..............yjgghijlnmj
(PID.TID 0000.0001) //     15 .....ynhecbdfikkhfffeht..........tifee.tifeepjiiikifeeeegffef+.+++++zjoqx...oo....++..ztnxz.ykkjjpz+++...sjjgdabcegdabcefddaakjhbbbdefedennnnggiky..ytwx.........ukm.yjjklnljijjihijkkkkljhhgfljhhgfgfedegoz.............zighiklnmki
(PID.TID 0000.0001) //     14 .......fcbbefimkgffcdgk..........piggf.piggfkpkiikmeddeefedddew+.+ytpjjqy++.rsw..........zzzzzslkn+++....rjjgcacbbgcacbbecc-ackcbdfffghdfnnnngkprtty..xx..........+y.vkjklmljjijjhijkkkkjhhhhhjhhhhhggedegkw.............phghjklmkih
(PID.TID 0000.0001) //     13 ......+ecbbbfimkhfdcceiz.........pjigi.pjigiikpnjkmeddeeeddddccinnmvtwyy++++zs...........zzzzz++sz++......ygbaacbcbaacbcbaa--bdcdhhfghkgimmrprnorrvvmrro.............llkllllkihijhijlkkkiijjjiiijjjiihfddehnx...........zlhghjkmkihf
(PID.TID 0000.0001) //     12 ......hfcbbcfkmkhfcccdj..........tmlrg.tmlrgghlkkkiedeeehcbdcdcggcbkv+++.+++r++..........+++++++.+++....++.tbbacddbbacdd---a-bddfhffghljnnnmrnmmnttkffgh............wlmmmlllljhhiiijllkljjklkkjjklkkkjgddegiijjuyy......oiffhkmliige
(PID.TID 0000.0001) //     11 .....rggecbdfknkhfdccdk..........pmp.i.pmp.ighokllgeeedekdbca--bebbs+....++.lt...........+++++..........+zzzedcbbfedcbbfc--abdddfffgggmkkhhmnqttttifeeff...........pmmlljjkkllkjjjjjmmllllmnnnllmnnnllkgddfgghhiqy.....yigffhjmjhggd
(PID.TID 0000.0001) //     10 .....xigecbdfjnkhedccdp.........vpt..gvpt..gfhokmmigfedfkdcb-abbhsu+........n...........................zywvrcbbbfrcbbbffdaaddbccgfikmqqrlhlttsprieefffg.........+tnljjkjjjjkmmlkkjkmnnmmmmmmmmmmmmmnmmhhffghhhhkqz..zxkffffgkjhggfd
(PID.TID 0000.0001) //      9 .....wjhfdbcfikmfeccfln+.......+pow.+fpow.+ffiikmmkggeegkeda-ddet++.........wz++........................zxvvmccaabmccaabcd--bdbbbdglorsspnnntqkhgfffffgl........+zmllkijiijiiklmmmllnnnlkkjjjjkkjjjjkkkjjghhiijjjlopoljhfeefgiihffee
(PID.TID 0000.0001) //      8 ....znhfdcbbeilifdcdkgiz.......wmmy.lfmmy.lfhgghikliigggkecbddeiv...........p..tt.........................+ymudba-mudba-aa-acbbbachlprsrppkppskurgfffjmo.......wlkjjkjhiiiihhiklmmmmnllkjhhiihjhhiihiiikmkkkmmnnnlmnokiihhhijigffeey
(PID.TID 0000.0001) //      7 ..+zpkhfdcdefimkhfefkegy.......rlku.ielku.ieeedfgjlliihghgfgfedi+...........o...qz.........................+zucba-zucba----bbbdaachghisirggtz+......+yvgo+....ukjiiijihhhhihhhikklllmkkkjhggggjhggggggggmmnnnlkljimoommmljkljgfeddcr
(PID.TID 0000.0001) //      6 .+zpoiggfeeehinkhgfkddgu......urghltfdghltfddddgihijliiinnnngfddw...........r...qr.........................w.ydcb-.ydcb---abbecaadieerrizhpx+........zgfnnmkjiiiiiiiiihhhhhhhhijkkkklkkjiiggffiiggffefegjkkkkhgggedfikkkmmmlhfddcbb+
(PID.TID 0000.0001) //      5 .+pkjiimjjffiknkhhjgedfm+....vpkefkondefkondeefifggillkklhhkicddf...........t...tv.........................sm.zkbbm.zkbb--cbbikebilggst+xmsz.........rdekmggfghhhhhhhggghgggggijjjkklkjjiiffeeiiffeeddeggihihffdddddgihhijiihedbbbc+
(PID.TID 0000.0001) //      4 +vlkiinnijgiijmiiifeddegy...nnpeegpqhfegpqhffgigfgghknkjjigggccot..........................................pmp.zgamp.zgaaahfkkkkfinhhry.ytz..........pcdjgfeeghgghgfgfffgggfggiijjjjkjiiiigeediigeeddcdefgfffeedddfwihghhigffddbbbe+
(PID.TID 0000.0001) //      3 wmjjiffhhiiiimnmljeddddfiwjhhnpddhtrkidhtrkigkjefgghinkkjjihfeddeyr+++++...................................mrpz.wurpz.wurnnnjgffimnmmm..++..........+ibbhfeeegfgggfeeeefgggfffgiiiijkiiiiigfeeiigfeedccdeffeeddddfxxohfglogfedbbbbs+
(PID.TID 0000.0001) //      2 lihhgeefggghiknkkhffddfeeemihjdddhtskidhtskiilhddfghinnmnmkihggfeecbcesy+.................................wmrp+.tirp+.tikifefeeegjihhm.++++.........+nbbeeeddffgffeeeeeeggggffgiiiiikihhhhhfedhhhfeddcccddfdddddhvwxrgffgmvgdcbbbty+
(PID.TID 0000.0001) //      1 feeeeeeeefggiknkihhgfffeefmhiedeeiqpkjeiqpkjnkgddegijmmmmnmkiiggfedbbbbt++++..............................ytsxz.uhsxz.uhgfeeefeeehgghu.++++.........+nbbddddeffggfeddeeegggggfgiiijjjhhhgggffegggffedcccdddddddfjpt.rfeffjyzrpinn++.
(PID.TID 0000.0001) //      0 ddeeedddeefffikmnkhffffffeeefeegimnnknimnnknojheeegikllkklnmkihgffdcbbbbnnni............................++..u+..znu+..zngifgb-aeaehhi.xy+..........+++tbddddeffgfedddeeefggggghiiijjihhhgffffegffffeddccddddddnswwy.mfefff+...++++..
(PID.TID 0000.0001) //     -1 ddeddddddddefiiknljiiiffebbegikmnkkmkonkkmkolkjhffiusmkiijllmljhhfedbbbbnbbb............................+++++.z+.x+.z+.xrjfia-aaaabgjzqqy+........+yt+ysdeedeefffeddceeeegggghiiinkihhhhfffffefffffedddcbcdddfgino.yvkfeff.......+..
(PID.TID 0000.0001) //     -2 dddddddddccefghikponjkkhebfkpppononinnnoninnmnmkhgpwxtkhhikkkmmjigfdddbbibbb............................+++++xnu+++xnu++yxpccbcbbabiwwojy+........+sb.++eefddefefeccceedegggghhgmohgghigeeegfeeeegfedddcbbccceddjw.tvtieff.......+..
(PID.TID 0000.0001) // =======================================================
(PID.TID 0000.0001) // END OF FIELD                                          =
(PID.TID 0000.0001) // =======================================================
(PID.TID 0000.0001) 
(PID.TID 0000.0001) // =======================================================
(PID.TID 0000.0001) // Field Model R_low (ini_masks_etc) at iteration          1
(PID.TID 0000.0001) // CMIN =         -5.200000000000000E+03
(PID.TID 0000.0001) // CMAX =         -5.000000000000000E+01
(PID.TID 0000.0001) // CINT =          1.907407407407407E+02
(PID.TID 0000.0001) // SYMBOLS (CMIN->CMAX): -abcdefghijklmnopqrstuvwxyz+
(PID.TID 0000.0001) //                  0.0: .
(PID.TID 0000.0001) // RANGE I (Lo:Hi:Step):(  -2: 195:   1)
(PID.TID 0000.0001) // RANGE J (Lo:Hi:Step):(  35:  -2:  -1)
(PID.TID 0000.0001) // RANGE K (Lo:Hi:Step):(   1:   1:   1)
(PID.TID 0000.0001) // =======================================================
(PID.TID 0000.0001) K =   1
(PID.TID 0000.0001) //                I=7       I=17      I=27      I=31      I=41      I=51      I=61      I=65      I=75      I=85      I=95      I=99      I=109     I=119     I=129     I=133     I=143     I=153     I=163     I=167     I=177     I=187
(PID.TID 0000.0001) // |--J--|**0123456|890123456|890123456|890123450|234567890|234567890|234567890|234567234|678901234|678901234|678901234|678945678|012345678|012345678|012345678|016789012|456789012|456789012|456789012|890123456|890123456|890123456|89012345
(PID.TID 0000.0001) //     35 cac--cbbeefjkfefw+..........zpu......................................kqnzrqq-b-da----bbbbfu..............fdddccaaddccaadcdddcbbbbcdddcccdffffghgffffddefligfiljfba---aafddehy...pwvlhfffcbagfccbagfcceeffffjlkjgaa---bfvheeln-aesaaa
(PID.TID 0000.0001) //     34 --ba-abcehjnldcclz+........spps.....................................vkqn+xnnabbcbba--aabfu+..............hcbaaaaacaaaaaccdccbaaabbddddccdffffghfeeeeedefiffefilhfcaaaacgceei.......zomggfcaecbfcaecbbccddefilihecbaacbaajfega-aesfee
(PID.TID 0000.0001) //     33 -abbbccceiomkfdbbc+.......+s........................................xsrxzz+zdcddb-----adu+...............hcbaa--acaa--accddba--bbbddddccdfffhhgfeeddccedfeddfgikhfffdfgccffw........zohhgebbaagebbaaaaaccdfhlhfefdcccaabjefbaaafooss
(PID.TID 0000.0001) //     32 -bddefhhkqqlgfaakqz..v.+..+.......................................++..u+....gfdba----adu+................kdcaaa-acaaa-accdcb---bbbcdddddefffggfeeedccccccbbdcdfgghhiihcbeiw.........+ynjgebaaagebaaaa-aacccfikkhecccbbbaaabaadfklnqp
(PID.TID 0000.0001) //     31 bbcffijnpnqneaaat..umrr+s.z.......................................+++++.ztsvifeb--dfdfu+................+lkdca--abca--abcccb---bbbbddddeffflhfeeeecbbbbaa-abbacbcdceffbbfw+..........++ujfbaaajfbaaa----aacffiljgfffcca--adfikkiihhh
(PID.TID 0000.0001) //     30 -adgillkkkifcadcx.ymmqzqikvnnps...................................+++++wmegtlifcacdlqx+++...............mligea---aea---abbbb---abaaddddeedkmeddefdbbbaaac---b--aaaaabaabm..............+viba--viba-------acdefinmlgiieb-chnnnmlmlgff
(PID.TID 0000.0001) //     29 -cfiljigfjd--efdozy...+ximpnnuz....................................+++yqddhpljhcbbchz+......++.........+mmhffc----fc----aaba------acdddcbcineddgdbaaa---dd--a------aa-bfz...............+qe---+qe---aa---aedeegknmlgiigcdfhpokkimlfd
(PID.TID 0000.0001) //     28 abgkhfcccea-bdei........t..........................................++zwgfcfkknhccbbhwwy.....+++........+njfeed----ed-----aa-------abddcabcnfddegcaaa----lf------------dk+................+ja--.+ja------bffdddehfd--bedaacfhpnligiih
(PID.TID 0000.0001) //     27 acghfbaaaa-achmy............................+++....................++vnbbbclkpkeeecflmqxy....++........+lhfeecc---ecc------------aaadcbabcfhddccba------qd-----------irw.................++e--.++e-----mhmijddda--------ahhfiokhedeg
(PID.TID 0000.0001) //     26 adhfca-----bfiv.............................++sy...................+tq-fdbblknqiheddefhiksz++++........zkhfdccb---ccb------------aabdcaaaacfddbca-------xfa-abb-----vvv...................+wa-..+wa---mlmkijhc----------cjjffiheb-aa
(PID.TID 0000.0001) //     25 achfa------ch+..................w.....w.......njo+................+x-----bcgiqqojfefiiiijmy.++.........zkhfdbaa---baa-------daa---acccaaaacccca--------a+udaabbb----tei...................++qd..++qdeqnghiljcaaaaidaa----beedeeca--b
(PID.TID 0000.0001) //     24 aeifa--acbcei...................w.....w.......likn+.....++.....++znpa----bbdfnlmnjhinlksssw............qhfeca-----a--------addc--aeffaaaaaaccb-a----a--b++udbbaba---ven....................++x...++xywnfgllcbbabegkecba----ddddcaacd
(PID.TID 0000.0001) //     23 bfida-aabchjk...................zz....zz.....nhhijz....tqq.....+ujgzgd---abccegklkkknols..xuu..........zgfdba-----a--------bcd---affaaadffabbb-----aa-bc+.+ufb-----l.gx...........s.........++....++zzkfilfccccoz..ulkcd---bccnfdddd
(PID.TID 0000.0001) //     22 afhfaa---bfgi....................zz..r.zz..rnjffggm...nlmn+....+sffzya--aabcaaffdfhimrmp...yuu.++.......zudba-----a--------adc---dda-adffe-aa--------aaa...+ufc-baaqvhh..........dcfeeh......+.....++zggqvifefhz......zobbaccfwuffee
(PID.TID 0000.0001) //     21 abcgca----abe.....................ysst..ysstlgeeeeoz..ijklt+....lfjzzf---adfdaadcehllotq....yy+++zzs.....+zcba----ba-------cdd--aaa----df------------aaa....+upjdcy.vohq.......+idcdfeeefwz...fwz....+hhn.vklox.........gdccfjwrigff
(PID.TID 0000.0001) //     20 bbbcgfcaa-aae+.......................l.....lcgfdddhq.+hiilnz++.+oquxyz--adgkcaabcfmtooyxz......+yuiiy....++gb-----b--------ddcca-a-----acbaa------bbaaaa.......ywxy.lulo.lv...kcdgddffefffilyxffilyx+fffk.+xyyy.........mgeimvskjkll
(PID.TID 0000.0001) //     19 mfeccdghfeegcbt......................a.....aafifccgnrzgghjry.+++sr+lq.--edfkxtkblwnnsp.vv......skhggt...+++t---------------bdaf---------edd-------adlaaa..........vnhzy.tllqiedccdhggfggffiiggffiiggfcbdgy..yz..........xigqophijkki
(PID.TID 0000.0001) //     18 .wifedfkhfegbbcivlqfoz..............ja....jaacfihggokeeffgt..++++..hhlfdeddk..qcz+.zwxtsttz..ysrkhot++++++zig-----g--------b--f---------egqqqaa----frb--........+kkrhw.vqmlnieddcdehgggffgigedfgigedbaaceiy.............zilrddefikkh
(PID.TID 0000.0001) //     17 .+wfeefikhgcbbccaaacgn.............ica...icaaccfihfoedddeedy..++...nnqwgfeeky.z++..+zsjjllllljllpjos+++.+zhhi-----i-----e-----ea--------foqqoqqo--hlwgea........+nk+..xiioonhfefddegihhghigfdbhigfdbaaabdgx..............nheddefiklh
(PID.TID 0000.0001) //     16 ...wiheddeccdfhfbabdfl............jdba..jdbaddddgifkccccdccd+.++..++ynvz.tkkmu....++zyslllllkhggkmpy++...ihhi-----i-----ea---feb-----a-acnoohfghknvmwnuc.........qhu..hhhkojgffgeefghihhiieedbiieedbaaabcdy..............ygddeghiljg
(PID.TID 0000.0001) //     15 .....ylea--acfihebcbbes..........sfcbb.sfcbbngfffigcaaabdbcac+.+++++zgmpx...mm....++..zslwz.yhhhhnz+++...rhgc----ac----ab----ige----acaaalllkddfiy..yswx.........thk.xgghiligfghfefhhhhiiheedciheedcdbbabdmz.............zfdeghikkif
(PID.TID 0000.0001) //     14 .......c---acgkhdcc--di..........ofddc.ofddchohffikaaaaabaaa-aw+.+ysnggox++.qrv..........yzzzzrjil+++....qhgd-----d-----a-----i---cccdeabkklldinqssy..xx..........+y.uhghikihgfghefgihhhgeeeeegeeeeeddbaadhw.............nedeghjjhfe
(PID.TID 0000.0001) //     13 ......+b----cfkhec---afz.........nhfdf.nhfdffholghkaaaaaba-a---flkkuswyy++++zr...........zzzzz++ry++......yd--------------------aeecdeidfkkqnqlmqquukqqm.............iihiijjhfefgefhjihiffgggfffgggffecaabelx...........zjecehijhfec
(PID.TID 0000.0001) //     12 ......ec----chjhec---ag..........skiqd.skiqddeiiiifaaabae--a---dd--iu+++.+++q++..........+z+++++.+++....++.s------------------a-ceccdejhlllkqlkklssiccde............wjkkkjjjigeefffgjiiighiiihghiiihhhdaabdffghtxx......mfccehjiffdb
(PID.TID 0000.0001) //     11 .....pdca--achlheba--ai..........nkn.f.nkn.fdemijidaaaabi-------a--q+....++.is...........+++++..........+yyza----ba----b-----a--ccccddkhieekkossssfbbbbc...........njjijhhihijhgggggjjjjijkkkkijkkkkjjhcaacddeegpy.....xfdccdhjgfdda
(PID.TID 0000.0001) //     10 .....wfdb--achlhea---an.........uos..duos..dcemikkfdcaabi-------equ+........k...........................zyvuq----cq----cc----a---dcfhkopqjeissrnpfbbcccd.........zslihhigghgijjihhhhkllkkkkkkjkkkkkjkkkedccdeeeeipz..zwhccbcdhgfddca
(PID.TID 0000.0001) //      9 .....vgec---bfikca--cjl+.......+nnv.+cnnv.+ccffhkkiddaadha-----as++.........vz++........................zxuuk-----k------a---a----djmqrrnlllsoiddcccccdj........+zjijhfgfggffhjkkkiillljihhghgihhghgihighdeeffgghimnnjgecbbcdgfeccba
(PID.TID 0000.0001) //      8 ....zleca---afjfca--hdfz.......vkky.jckky.jceddefijffdddhb--a-afv...........n..ss.........................+yku----ku--------------ejnpqqnninnritqdccchkm.......wihgghgeffffeefhijkjkljiigeeffegeeffefffhjhhikkklljklmhffeeeggfdcbaay
(PID.TID 0000.0001) //      7 ..+zohec--abcfkhecbchbdx.......qiht.faiht.faaaabdgijgfededcdcb-f+...........n...pz.........................+zu----zu--------------edefqgqddsz+......+yudm+....tiggfggfeeeefeeefiiiijkiihheddddheddddddddjjllliijhfkmmkkjjhijgdcba--q
(PID.TID 0000.0001) //      6 .+yomfddcaabefkifdchaadt......uqdeisc-deisc----dfefgifffkklldc--v...........p...pp.........................v.x----.x---------a----fbbpqgzenx+........zdbllkhhfffffffgfeeeeeeeefhhhhijihhffddcbffddcbbbbdhhiihedddb-cfhhhjjjieca----+
(PID.TID 0000.0001) //      5 .+nhgffkghccfhkhffgdaackz....uoibcimlabcimlaaacfbddfjjhijeehf-a-c...........s...su.........................qk.yi--k.yi-------gha-fjddqs+xkrz.........q-bikdccdeeeeeeedddedddddgghhhhjhhgffcbbaffcbbaaaaddfegecca----dfeefhfgdb-----+
(PID.TID 0000.0001) //      4 +ujhgfllfhdffhkfffca-aady...llnabdopfcbdopfcbdgdbcdehlihgfddc--ms..........................................okn.zd-kn.zd---eciiiicfkeeqy.ysz..........n-agdcbbdeddedcdcccdddcddffggghiggfffdbaaffdbaa---acdcccba--abvfedeffdcca----b+
(PID.TID 0000.0001) //      3 vjggfcceeffffjlkjgaa---bfvheeln-aesphfaesphfdhgabddeflihhgfecbaaayq+++++...................................kqnz.vtqnz.vtpkllgdccfkkkkk..++..........+g--ecaaadcdddcbbbbcdddcccdffffghgffffdcaaffdcaa----abcaaaa-acxxmecdjmdbba----r+
(PID.TID 0000.0001) //      2 ifeecbbccddefilihecbaacbaajfega-aesqhfaesqhffiea-cdeflkkljifeddcba---bry+.................................vkqn+.sgqn+.sghfcbcbbbdgfdek.++++.........+l--aaaaaccdccbaaabbddddccdffffghfeeeeecbaeeecba------baaaa-euwxqdbcdkud-----sy+
(PID.TID 0000.0001) //      1 bbbbaaaaaccdfhlhfefdcccaabjefbaaafonhgafonhglid--adfgkkkklkhffddca-----s++++..............................xsrxz.terxz.tedcbbbbaaadddet.++++.........+l----a-accddba--bbbddddccdfffhhgfeeddccbaddccba-------aaaabgns.qcbcchyzqngll++.
(PID.TID 0000.0001) //      0 aaaaaaa-aacccfikkhecccbbbaaabaadfkllilfkllilmgebaadfijjiiikjhffdcba-----lllg............................++..u+..zmu+..zmdfbd---a-aeef.xx+..........+++s-----accdcb---bbbcdddddefffggfeeedcccbbdcccbba----aa--alrwwy.kcbccc+...++++..
(PID.TID 0000.0001) //     -1 -aaaaa----aacffiljgfffcca--adfikkiikimkiikimiiheccfurkiffhijjigfecb-----l---............................+++++.z+.w+.z+.wqgbf-------dgzpoy+........+ys+yr-aa-abcccb---bbbbddddeffflhfeeeecbbcbbcbbcbbaa----a--bdflm.yuibbcc.......+..
(PID.TID 0000.0001) //     -2 -aaa-------acdefinmlgiieb-chnnnmlmlfkllmlfklklkhednwwsheeghhijjgfdca----g---............................+++++wmu+++wmu++ywn--------fwvmgy+........+r-.++abc--abbbb---abaaddddeedkmeddefdbbbdcbbbbdcbaa-------ba-hv.susfbcc.......+..
(PID.TID 0000.0001) // =======================================================
(PID.TID 0000.0001) // END OF FIELD                                          =
(PID.TID 0000.0001) // =======================================================
(PID.TID 0000.0001) 
(PID.TID 0000.0001) // =======================================================
(PID.TID 0000.0001) // Field Model Ro_surf (ini_masks_etc) at iteration          1
(PID.TID 0000.0001) // CMIN =         -7.105427357601002E-15
(PID.TID 0000.0001) // CMAX =         -7.105427357601002E-15
(PID.TID 0000.0001) // CINT =          0.000000000000000E+00
(PID.TID 0000.0001) // SYMBOLS (CMIN->CMAX): -abcdefghijklmnopqrstuvwxyz+
(PID.TID 0000.0001) //                  0.0: .
(PID.TID 0000.0001) // RANGE I (Lo:Hi:Step):(  -2: 195:   1)
(PID.TID 0000.0001) // RANGE J (Lo:Hi:Step):(  35:  -2:  -1)
(PID.TID 0000.0001) // RANGE K (Lo:Hi:Step):(   1:   1:   1)
(PID.TID 0000.0001) // =======================================================
(PID.TID 0000.0001) // =======================================================
(PID.TID 0000.0001) // END OF FIELD                                          =
(PID.TID 0000.0001) // =======================================================
(PID.TID 0000.0001) 
(PID.TID 0000.0001) // =======================================================
(PID.TID 0000.0001) // Field hFacC at iteration          1
(PID.TID 0000.0001) // CMIN =          1.000000000000000E+00
(PID.TID 0000.0001) // CMAX =          1.000000000000000E+00
(PID.TID 0000.0001) // CINT =          0.000000000000000E+00
(PID.TID 0000.0001) // SYMBOLS (CMIN->CMAX): -abcdefghijklmnopqrstuvwxyz+
(PID.TID 0000.0001) //                  0.0: .
(PID.TID 0000.0001) // RANGE I (Lo:Hi:Step):(  -2: 195:   1)
(PID.TID 0000.0001) // RANGE J (Lo:Hi:Step):(  35:  -2:  -1)
(PID.TID 0000.0001) // RANGE K (Lo:Hi:Step):(   1:   1:   1)
(PID.TID 0000.0001) // =======================================================
(PID.TID 0000.0001) // =======================================================
(PID.TID 0000.0001) // END OF FIELD                                          =
(PID.TID 0000.0001) // =======================================================
(PID.TID 0000.0001) 
(PID.TID 0000.0001) // =======================================================
(PID.TID 0000.0001) // Field hFacW at iteration          1
(PID.TID 0000.0001) // CMIN =          1.000000000000000E+00
(PID.TID 0000.0001) // CMAX =          1.000000000000000E+00
(PID.TID 0000.0001) // CINT =          0.000000000000000E+00
(PID.TID 0000.0001) // SYMBOLS (CMIN->CMAX): -abcdefghijklmnopqrstuvwxyz+
(PID.TID 0000.0001) //                  0.0: .
(PID.TID 0000.0001) // RANGE I (Lo:Hi:Step):(  -2: 195:   1)
(PID.TID 0000.0001) // RANGE J (Lo:Hi:Step):(  35:  -2:  -1)
(PID.TID 0000.0001) // RANGE K (Lo:Hi:Step):(   1:   1:   1)
(PID.TID 0000.0001) // =======================================================
(PID.TID 0000.0001) // =======================================================
(PID.TID 0000.0001) // END OF FIELD                                          =
(PID.TID 0000.0001) // =======================================================
(PID.TID 0000.0001) 
(PID.TID 0000.0001) // =======================================================
(PID.TID 0000.0001) // Field hFacS at iteration          1
(PID.TID 0000.0001) // CMIN =          1.000000000000000E+00
(PID.TID 0000.0001) // CMAX =          1.000000000000000E+00
(PID.TID 0000.0001) // CINT =          0.000000000000000E+00
(PID.TID 0000.0001) // SYMBOLS (CMIN->CMAX): -abcdefghijklmnopqrstuvwxyz+
(PID.TID 0000.0001) //                  0.0: .
(PID.TID 0000.0001) // RANGE I (Lo:Hi:Step):(  -2: 195:   1)
(PID.TID 0000.0001) // RANGE J (Lo:Hi:Step):(  35:  -2:  -1)
(PID.TID 0000.0001) // RANGE K (Lo:Hi:Step):(   1:   1:   1)
(PID.TID 0000.0001) // =======================================================
(PID.TID 0000.0001) // =======================================================
(PID.TID 0000.0001) // END OF FIELD                                          =
(PID.TID 0000.0001) // =======================================================
(PID.TID 0000.0001) 
(PID.TID 0000.0001) 
(PID.TID 0000.0001) // ===================================
(PID.TID 0000.0001) // GAD parameters :
(PID.TID 0000.0001) // ===================================
(PID.TID 0000.0001) tempAdvScheme =   /* Temp. Horiz.Advection scheme selector */
(PID.TID 0000.0001)                       2
(PID.TID 0000.0001)     ;
(PID.TID 0000.0001) tempVertAdvScheme =   /* Temp. Vert. Advection scheme selector */
(PID.TID 0000.0001)                       2
(PID.TID 0000.0001)     ;
(PID.TID 0000.0001) tempMultiDimAdvec =   /* use Muti-Dim Advec method for Temp */
(PID.TID 0000.0001)                   F
(PID.TID 0000.0001)     ;
(PID.TID 0000.0001) AdamsBashforthGt =   /* apply Adams-Bashforth extrapolation on Gt */
(PID.TID 0000.0001)                   T
(PID.TID 0000.0001)     ;
(PID.TID 0000.0001) AdamsBashforth_T =   /* apply Adams-Bashforth extrapolation on Temp */
(PID.TID 0000.0001)                   F
(PID.TID 0000.0001)     ;
(PID.TID 0000.0001) saltAdvScheme =   /* Salt. Horiz.advection scheme selector */
(PID.TID 0000.0001)                       2
(PID.TID 0000.0001)     ;
(PID.TID 0000.0001) saltVertAdvScheme =   /* Salt. Vert. Advection scheme selector */
(PID.TID 0000.0001)                       2
(PID.TID 0000.0001)     ;
(PID.TID 0000.0001) saltMultiDimAdvec =   /* use Muti-Dim Advec method for Salt */
(PID.TID 0000.0001)                   F
(PID.TID 0000.0001)     ;
(PID.TID 0000.0001) AdamsBashforthGs =   /* apply Adams-Bashforth extrapolation on Gs */
(PID.TID 0000.0001)                   T
(PID.TID 0000.0001)     ;
(PID.TID 0000.0001) AdamsBashforth_S =   /* apply Adams-Bashforth extrapolation on Salt */
(PID.TID 0000.0001)                   F
(PID.TID 0000.0001)     ;
(PID.TID 0000.0001) // ===================================
(PID.TID 0000.0001) GMREDI_CHECK: #define GMREDI
(PID.TID 0000.0001) GM_AdvForm =  /* if FALSE => use SkewFlux Form */
(PID.TID 0000.0001)                   F
(PID.TID 0000.0001)     ;
(PID.TID 0000.0001) GM_AdvSeparate = /* Calc Bolus & Euler Adv. separately */
(PID.TID 0000.0001)                   F
(PID.TID 0000.0001)     ;
(PID.TID 0000.0001) GM_ExtraDiag =  /* Tensor Extra Diag (line 1&2) non 0 */
(PID.TID 0000.0001)                   F
(PID.TID 0000.0001)     ;
(PID.TID 0000.0001) GM_isopycK =   /* Background Isopyc. Diffusivity ( m^2/s ) */
(PID.TID 0000.0001)                 8.000000000000000E+02
(PID.TID 0000.0001)     ;
(PID.TID 0000.0001)  GM_skewflx*K =   /* Background GM_SkewFlx Diffusivity ( m^2/s ) */
(PID.TID 0000.0001)                 8.000000000000000E+02
(PID.TID 0000.0001)     ;
(PID.TID 0000.0001)  GM_advec*K =   /* Backg. GM-Advec(=Bolus) Diffusivity ( m^2/s ) */
(PID.TID 0000.0001)                 0.000000000000000E+00
(PID.TID 0000.0001)     ;
(PID.TID 0000.0001)  GM_Visbeck_alpha =   /* Visbeck alpha coeff. ( ) */
(PID.TID 0000.0001)                 0.000000000000000E+00
(PID.TID 0000.0001)     ;
(PID.TID 0000.0001)  Tapering/Cliping : gkw91
(PID.TID 0000.0001)  GM_Small_Number =  /* epsilon used in slope calc */
(PID.TID 0000.0001)                 1.000000000000000E-12
(PID.TID 0000.0001)     ;
(PID.TID 0000.0001)  GM_slopeSqCutoff =  /* Slope^2 cut-off value */
(PID.TID 0000.0001)                 1.000000000000000E+48
(PID.TID 0000.0001)     ;
(PID.TID 0000.0001) %MON fCori_max                    =   1.4574827780704E-04
(PID.TID 0000.0001) %MON fCori_min                    =  -1.4574827780704E-04
(PID.TID 0000.0001) %MON fCori_mean                   =   0.0000000000000E+00
(PID.TID 0000.0001) %MON fCori_sd                     =   8.4202189509968E-05
(PID.TID 0000.0001) %MON fCoriG_max                   =   1.4584247033981E-04
(PID.TID 0000.0001) %MON fCoriG_min                   =  -1.4584247033981E-04
(PID.TID 0000.0001) %MON fCoriG_mean                  =   2.3068131329479E-21
(PID.TID 0000.0001) %MON fCoriG_sd                    =   8.5093242784592E-05
(PID.TID 0000.0001) %MON fCoriCos_max                 =   1.4580166994612E-04
(PID.TID 0000.0001) %MON fCoriCos_min                 =   5.2407700865903E-06
(PID.TID 0000.0001) %MON fCoriCos_mean                =   1.1514045869113E-04
(PID.TID 0000.0001) %MON fCoriCos_sd                  =   3.0375849106513E-05
(PID.TID 0000.0001) INI_CG2D: CG2D normalisation factor =  1.9156564154949553E-04
(PID.TID 0000.0001) INI_CG2D: cg2dTolerance = 1.936338786725098E-07 (Area=3.6388673751E+14)
(PID.TID 0000.0001) 
(PID.TID 0000.0001) // CG3D normalisation factor =          0.5725594992170356877174545E-09
(PID.TID 0000.0001) 
(PID.TID 0000.0001) CONFIG_CHECK: OK
(PID.TID 0000.0001) // =======================================================
(PID.TID 0000.0001) // Model configuration
(PID.TID 0000.0001) // =======================================================
(PID.TID 0000.0001) //
(PID.TID 0000.0001) // "Physical" paramters ( PARM01 in namelist )
(PID.TID 0000.0001) //
(PID.TID 0000.0001) buoyancyRelation = OCEANIC
(PID.TID 0000.0001) fluidIsAir  =  /* fluid major constituent is Air */
(PID.TID 0000.0001)                   F
(PID.TID 0000.0001)     ;
(PID.TID 0000.0001) fluidIsWater=  /* fuild major constituent is Water */
(PID.TID 0000.0001)                   T
(PID.TID 0000.0001)     ;
(PID.TID 0000.0001) usingPCoords =  /* use p (or p*) vertical coordinate */
(PID.TID 0000.0001)                   F
(PID.TID 0000.0001)     ;
(PID.TID 0000.0001) usingZCoords =  /* use z (or z*) vertical coordinate */
(PID.TID 0000.0001)                   T
(PID.TID 0000.0001)     ;
(PID.TID 0000.0001) tRef =   /* Reference temperature profile ( oC or K ) */
(PID.TID 0000.0001)    15 @  2.000000000000000E+01              /* K =  1: 15 */
(PID.TID 0000.0001)     ;
(PID.TID 0000.0001) sRef =   /* Reference salinity profile ( psu ) */
(PID.TID 0000.0001)    15 @  3.500000000000000E+01              /* K =  1: 15 */
(PID.TID 0000.0001)     ;
(PID.TID 0000.0001) viscAh =   /* Lateral eddy viscosity ( m^2/s ) */
(PID.TID 0000.0001)                 1.000000000000000E+05
(PID.TID 0000.0001)     ;
(PID.TID 0000.0001) viscAhMax =   /* Maximum lateral eddy viscosity ( m^2/s ) */
(PID.TID 0000.0001)                 1.000000000000000E+21
(PID.TID 0000.0001)     ;
(PID.TID 0000.0001) viscAhGrid =   /* Grid dependent lateral eddy viscosity ( non-dim. ) */
(PID.TID 0000.0001)                 0.000000000000000E+00
(PID.TID 0000.0001)     ;
(PID.TID 0000.0001) useFullLeith =   /* Use Full Form of Leith Viscosity on/off flag*/
(PID.TID 0000.0001)                   F
(PID.TID 0000.0001)     ;
(PID.TID 0000.0001) useStrainTensionVisc =   /* Use StrainTension Form of Viscous Operator on/off flag*/
(PID.TID 0000.0001)                   F
(PID.TID 0000.0001)     ;
(PID.TID 0000.0001) useAreaViscLength =   /* Use area for visc length instead of geom. mean*/
(PID.TID 0000.0001)                   F
(PID.TID 0000.0001)     ;
(PID.TID 0000.0001) viscC2leith = /* Leith harmonic visc. factor (on grad(vort),non-dim.) */
(PID.TID 0000.0001)                 0.000000000000000E+00
(PID.TID 0000.0001)     ;
(PID.TID 0000.0001) viscC2leithD = /* Leith harmonic viscosity factor (on grad(div),non-dim.) */
(PID.TID 0000.0001)                 0.000000000000000E+00
(PID.TID 0000.0001)     ;
(PID.TID 0000.0001) viscC2smag =   /* Smagorinsky harmonic viscosity factor (non-dim.) */
(PID.TID 0000.0001)                 0.000000000000000E+00
(PID.TID 0000.0001)     ;
(PID.TID 0000.0001) viscA4 =   /* Lateral biharmonic viscosity ( m^4/s ) */
(PID.TID 0000.0001)                 3.000000000000000E+14
(PID.TID 0000.0001)     ;
(PID.TID 0000.0001) viscA4Max =   /* Maximum biharmonic viscosity ( m^2/s ) */
(PID.TID 0000.0001)                 1.000000000000000E+21
(PID.TID 0000.0001)     ;
(PID.TID 0000.0001) viscA4Grid =   /* Grid dependent biharmonic viscosity ( non-dim. ) */
(PID.TID 0000.0001)                 0.000000000000000E+00
(PID.TID 0000.0001)     ;
(PID.TID 0000.0001) viscC4leith = /* Leith biharm viscosity factor (on grad(vort), non-dim.) */
(PID.TID 0000.0001)                 0.000000000000000E+00
(PID.TID 0000.0001)     ;
(PID.TID 0000.0001) viscC4leithD = /* Leith biharm viscosity factor (on grad(div), non-dim.) */
(PID.TID 0000.0001)                 0.000000000000000E+00
(PID.TID 0000.0001)     ;
(PID.TID 0000.0001) viscC4Smag = /* Smagorinsky biharm viscosity factor (non-dim) */
(PID.TID 0000.0001)                 0.000000000000000E+00
(PID.TID 0000.0001)     ;
(PID.TID 0000.0001) no_slip_sides =  /* Viscous BCs: No-slip sides */
(PID.TID 0000.0001)                   T
(PID.TID 0000.0001)     ;
(PID.TID 0000.0001) sideDragFactor = /* side-drag scaling factor (non-dim) */
(PID.TID 0000.0001)                 2.000000000000000E+00
(PID.TID 0000.0001)     ;
(PID.TID 0000.0001) viscAr =   /* Vertical eddy viscosity ( units of r^2/s ) */
(PID.TID 0000.0001)                 1.000000000000000E-03
(PID.TID 0000.0001)     ;
(PID.TID 0000.0001) no_slip_bottom =  /* Viscous BCs: No-slip bottom */
(PID.TID 0000.0001)                   T
(PID.TID 0000.0001)     ;
(PID.TID 0000.0001) bottomDragLinear = /* linear bottom-drag coefficient ( 1/s ) */
(PID.TID 0000.0001)                 0.000000000000000E+00
(PID.TID 0000.0001)     ;
(PID.TID 0000.0001) bottomDragQuadratic = /* quadratic bottom-drag coeff. ( 1/m ) */
(PID.TID 0000.0001)                 0.000000000000000E+00
(PID.TID 0000.0001)     ;
(PID.TID 0000.0001) diffKhT =   /* Laplacian diffusion of heat laterally ( m^2/s ) */
(PID.TID 0000.0001)                 0.000000000000000E+00
(PID.TID 0000.0001)     ;
(PID.TID 0000.0001) diffK4T =   /* Bihaarmonic diffusion of heat laterally ( m^4/s ) */
(PID.TID 0000.0001)                 0.000000000000000E+00
(PID.TID 0000.0001)     ;
(PID.TID 0000.0001) diffKhS =   /* Laplacian diffusion of salt laterally ( m^2/s ) */
(PID.TID 0000.0001)                 0.000000000000000E+00
(PID.TID 0000.0001)     ;
(PID.TID 0000.0001) diffK4S =   /* Bihaarmonic diffusion of salt laterally ( m^4/s ) */
(PID.TID 0000.0001)                 0.000000000000000E+00
(PID.TID 0000.0001)     ;
(PID.TID 0000.0001) diffKrNrT = /* vertical profile of vertical diffusion of Temp ( m^2/s )*/
(PID.TID 0000.0001)    15 @  3.000000000000000E-05              /* K =  1: 15 */
(PID.TID 0000.0001)     ;
(PID.TID 0000.0001) diffKrNrS = /* vertical profile of vertical diffusion of Salt ( m^2/s )*/
(PID.TID 0000.0001)    15 @  3.000000000000000E-05              /* K =  1: 15 */
(PID.TID 0000.0001)     ;
(PID.TID 0000.0001) diffKrBL79surf =   /* Surface diffusion for Bryan and Lewis 1979 ( m^2/s ) */
(PID.TID 0000.0001)                 0.000000000000000E+00
(PID.TID 0000.0001)     ;
(PID.TID 0000.0001) diffKrBL79deep =   /* Deep diffusion for Bryan and Lewis 1979 ( m^2/s ) */
(PID.TID 0000.0001)                 0.000000000000000E+00
(PID.TID 0000.0001)     ;
(PID.TID 0000.0001) diffKrBL79scl =   /* Depth scale for Bryan and Lewis 1979 ( m ) */
(PID.TID 0000.0001)                 2.000000000000000E+02
(PID.TID 0000.0001)     ;
(PID.TID 0000.0001) diffKrBL79Ho =   /* Turning depth for Bryan and Lewis 1979 ( m ) */
(PID.TID 0000.0001)                -2.000000000000000E+03
(PID.TID 0000.0001)     ;
(PID.TID 0000.0001) Equation of State : eosType = JMD95Z ;
(PID.TID 0000.0001) tAlpha =   /* Linear EOS thermal expansion coefficient ( 1/oC ) */
(PID.TID 0000.0001)                 1.234567000000000E+05
(PID.TID 0000.0001)     ;
(PID.TID 0000.0001) sBeta =   /* Linear EOS haline contraction coefficient ( 1/psu ) */
(PID.TID 0000.0001)                 1.234567000000000E+05
(PID.TID 0000.0001)     ;
(PID.TID 0000.0001) rhonil =   /* Reference density ( kg/m^3 ) */
(PID.TID 0000.0001)                 1.035000000000000E+03
(PID.TID 0000.0001)     ;
(PID.TID 0000.0001) rhoConst =   /* Reference density ( kg/m^3 ) */
(PID.TID 0000.0001)                 1.035000000000000E+03
(PID.TID 0000.0001)     ;
(PID.TID 0000.0001) rhoConstFresh =   /* Reference density ( kg/m^3 ) */
(PID.TID 0000.0001)                 1.000000000000000E+03
(PID.TID 0000.0001)     ;
(PID.TID 0000.0001) gravity =   /* Gravitational acceleration ( m/s^2 ) */
(PID.TID 0000.0001)                 9.810000000000000E+00
(PID.TID 0000.0001)     ;
(PID.TID 0000.0001) gBaro =   /* Barotropic gravity ( m/s^2 ) */
(PID.TID 0000.0001)                 9.810000000000000E+00
(PID.TID 0000.0001)     ;
(PID.TID 0000.0001) rotationPeriod =   /* Rotation Period ( s ) */
(PID.TID 0000.0001)                 8.616400000000000E+04
(PID.TID 0000.0001)     ;
(PID.TID 0000.0001) omega =   /* Angular velocity ( rad/s ) */
(PID.TID 0000.0001)                 7.292123516990375E-05
(PID.TID 0000.0001)     ;
(PID.TID 0000.0001) f0 =   /* Reference coriolis parameter ( 1/s ) */
(PID.TID 0000.0001)                 1.000000000000000E-04
(PID.TID 0000.0001)     ;
(PID.TID 0000.0001) beta =   /* Beta ( 1/(m.s) ) */
(PID.TID 0000.0001)                 9.999999999999999E-12
(PID.TID 0000.0001)     ;
(PID.TID 0000.0001) freeSurfFac =   /* Implicit free surface factor */
(PID.TID 0000.0001)                 1.000000000000000E+00
(PID.TID 0000.0001)     ;
(PID.TID 0000.0001) implicitFreeSurface =   /* Implicit free surface on/off flag */
(PID.TID 0000.0001)                   T
(PID.TID 0000.0001)     ;
(PID.TID 0000.0001) rigidLid =   /* Rigid lid on/off flag */
(PID.TID 0000.0001)                   F
(PID.TID 0000.0001)     ;
(PID.TID 0000.0001) implicSurfPress =   /* Surface Pressure implicit factor (0-1)*/
(PID.TID 0000.0001)                 1.000000000000000E+00
(PID.TID 0000.0001)     ;
(PID.TID 0000.0001) implicDiv2Dflow =   /* Barot. Flow Div. implicit factor (0-1)*/
(PID.TID 0000.0001)                 1.000000000000000E+00
(PID.TID 0000.0001)     ;
(PID.TID 0000.0001) exactConserv =   /* Exact Volume Conservation on/off flag*/
(PID.TID 0000.0001)                   T
(PID.TID 0000.0001)     ;
(PID.TID 0000.0001) uniformLin_PhiSurf =   /* use uniform Bo_surf on/off flag*/
(PID.TID 0000.0001)                   T
(PID.TID 0000.0001)     ;
(PID.TID 0000.0001) nonlinFreeSurf =   /* Non-linear Free Surf. options (-1,0,1,2,3)*/
(PID.TID 0000.0001)                       0
(PID.TID 0000.0001)     ;
(PID.TID 0000.0001)      -1,0= Off ; 1,2,3= On, 2=+rescale gU,gV, 3=+update cg2d solv.
(PID.TID 0000.0001) hFacInf =   /* lower threshold for hFac (nonlinFreeSurf only)*/
(PID.TID 0000.0001)                 2.000000000000000E-01
(PID.TID 0000.0001)     ;
(PID.TID 0000.0001) hFacSup =   /* upper threshold for hFac (nonlinFreeSurf only)*/
(PID.TID 0000.0001)                 2.000000000000000E+00
(PID.TID 0000.0001)     ;
(PID.TID 0000.0001) select_rStar =   /* r* Coordinate options (not yet implemented)*/
(PID.TID 0000.0001)                       0
(PID.TID 0000.0001)     ;
(PID.TID 0000.0001) useRealFreshWaterFlux =   /* Real Fresh Water Flux on/off flag*/
(PID.TID 0000.0001)                   T
(PID.TID 0000.0001)     ;
(PID.TID 0000.0001) convertFW2Salt = /* convert F.W. Flux to Salt Flux (-1=use local S)(ppt)*/
(PID.TID 0000.0001)                -1.000000000000000E+00
(PID.TID 0000.0001)     ;
(PID.TID 0000.0001) use3Dsolver = /* use 3-D pressure solver on/off flag */
(PID.TID 0000.0001)                   T
(PID.TID 0000.0001)     ;
(PID.TID 0000.0001) nonHydrostatic =  /* Non-Hydrostatic on/off flag */
(PID.TID 0000.0001)                   T
(PID.TID 0000.0001)     ;
(PID.TID 0000.0001) nh_Am2 = /* Non-Hydrostatic terms scaling factor */
(PID.TID 0000.0001)                 1.000000000000000E+00
(PID.TID 0000.0001)     ;
(PID.TID 0000.0001) quasiHydrostatic = /* Quasi-Hydrostatic on/off flag */
(PID.TID 0000.0001)                   F
(PID.TID 0000.0001)     ;
(PID.TID 0000.0001) momStepping =  /* Momentum equation on/off flag */
(PID.TID 0000.0001)                   T
(PID.TID 0000.0001)     ;
(PID.TID 0000.0001) vectorInvariantMomentum= /* Vector-Invariant Momentum on/off */
(PID.TID 0000.0001)                   T
(PID.TID 0000.0001)     ;
(PID.TID 0000.0001) momAdvection =  /* Momentum advection on/off flag */
(PID.TID 0000.0001)                   T
(PID.TID 0000.0001)     ;
(PID.TID 0000.0001) momViscosity =  /* Momentum viscosity on/off flag */
(PID.TID 0000.0001)                   T
(PID.TID 0000.0001)     ;
(PID.TID 0000.0001) momImplVertAdv =/* Momentum implicit vert. advection on/off*/
(PID.TID 0000.0001)                   F
(PID.TID 0000.0001)     ;
(PID.TID 0000.0001) implicitViscosity = /* Implicit viscosity on/off flag */
(PID.TID 0000.0001)                   F
(PID.TID 0000.0001)     ;
(PID.TID 0000.0001) metricTerms =  /* metric-Terms on/off flag */
(PID.TID 0000.0001)                   F
(PID.TID 0000.0001)     ;
(PID.TID 0000.0001) useNHMTerms = /* Non-Hydrostatic Metric-Terms on/off */
(PID.TID 0000.0001)                   T
(PID.TID 0000.0001)     ;
(PID.TID 0000.0001) useConstantF =  /* use Constant f0 Coriolis flag */
(PID.TID 0000.0001)                   F
(PID.TID 0000.0001)     ;
(PID.TID 0000.0001) useBetaPlaneF = /* use Beta-Plane Coriolis flag */
(PID.TID 0000.0001)                   F
(PID.TID 0000.0001)     ;
(PID.TID 0000.0001) useSphereF  =   /* use Spherical Coriolis flag */
(PID.TID 0000.0001)                   T
(PID.TID 0000.0001)     ;
(PID.TID 0000.0001) use3dCoriolis = /* 3-D Coriolis on/off flag */
(PID.TID 0000.0001)                   T
(PID.TID 0000.0001)     ;
(PID.TID 0000.0001) useCoriolis =  /* Coriolis on/off flag */
(PID.TID 0000.0001)                   T
(PID.TID 0000.0001)     ;
(PID.TID 0000.0001) useCDscheme =  /* CD scheme on/off flag */
(PID.TID 0000.0001)                   F
(PID.TID 0000.0001)     ;
(PID.TID 0000.0001) useJamartWetPoints= /* Coriolis WetPoints method flag */
(PID.TID 0000.0001)                   F
(PID.TID 0000.0001)     ;
(PID.TID 0000.0001) useJamartMomAdv= /* V.I. Non-linear terms Jamart flag */
(PID.TID 0000.0001)                   F
(PID.TID 0000.0001)     ;
(PID.TID 0000.0001) SadournyCoriolis= /* Sadourny Coriolis discr. flag */
(PID.TID 0000.0001)                   F
(PID.TID 0000.0001)     ;
(PID.TID 0000.0001) upwindVorticity= /* Upwind bias vorticity flag */
(PID.TID 0000.0001)                   F
(PID.TID 0000.0001)     ;
(PID.TID 0000.0001) useAbsVorticity= /* Work with f+zeta in Coriolis */
(PID.TID 0000.0001)                   F
(PID.TID 0000.0001)     ;
(PID.TID 0000.0001) highOrderVorticity= /* High order interp. of vort. flag */
(PID.TID 0000.0001)                   F
(PID.TID 0000.0001)     ;
(PID.TID 0000.0001) upwindShear= /* Upwind vertical Shear advection flag */
(PID.TID 0000.0001)                   F
(PID.TID 0000.0001)     ;
(PID.TID 0000.0001) selectKEscheme= /* Kinetic Energy scheme selector */
(PID.TID 0000.0001)                       0
(PID.TID 0000.0001)     ;
(PID.TID 0000.0001) momForcing =  /* Momentum forcing on/off flag */
(PID.TID 0000.0001)                   T
(PID.TID 0000.0001)     ;
(PID.TID 0000.0001) momPressureForcing =  /* Momentum pressure term on/off flag */
(PID.TID 0000.0001)                   T
(PID.TID 0000.0001)     ;
(PID.TID 0000.0001) implicitIntGravWave= /* Implicit Internal Gravity Wave flag */
(PID.TID 0000.0001)                   F
(PID.TID 0000.0001)     ;
(PID.TID 0000.0001) staggerTimeStep =   /* Stagger time stepping on/off flag */
(PID.TID 0000.0001)                   T
(PID.TID 0000.0001)     ;
(PID.TID 0000.0001) multiDimAdvection =   /* enable/disable Multi-Dim Advection */
(PID.TID 0000.0001)                   T
(PID.TID 0000.0001)     ;
(PID.TID 0000.0001) useMultiDimAdvec =   /* Multi-Dim Advection is/is-not used */
(PID.TID 0000.0001)                   F
(PID.TID 0000.0001)     ;
(PID.TID 0000.0001) implicitDiffusion =/* Implicit Diffusion on/off flag */
(PID.TID 0000.0001)                   T
(PID.TID 0000.0001)     ;
(PID.TID 0000.0001) tempStepping =  /* Temperature equation on/off flag */
(PID.TID 0000.0001)                   T
(PID.TID 0000.0001)     ;
(PID.TID 0000.0001) tempAdvection=  /* Temperature advection on/off flag */
(PID.TID 0000.0001)                   T
(PID.TID 0000.0001)     ;
(PID.TID 0000.0001) tempImplVertAdv =/* Temp. implicit vert. advection on/off */
(PID.TID 0000.0001)                   F
(PID.TID 0000.0001)     ;
(PID.TID 0000.0001) tempForcing  =  /* Temperature forcing on/off flag */
(PID.TID 0000.0001)                   T
(PID.TID 0000.0001)     ;
(PID.TID 0000.0001) saltStepping =  /* Salinity equation on/off flag */
(PID.TID 0000.0001)                   T
(PID.TID 0000.0001)     ;
(PID.TID 0000.0001) saltAdvection=  /* Salinity advection on/off flag */
(PID.TID 0000.0001)                   T
(PID.TID 0000.0001)     ;
(PID.TID 0000.0001) saltImplVertAdv =/* Sali. implicit vert. advection on/off */
(PID.TID 0000.0001)                   F
(PID.TID 0000.0001)     ;
(PID.TID 0000.0001) saltForcing  =  /* Salinity forcing on/off flag */
(PID.TID 0000.0001)                   T
(PID.TID 0000.0001)     ;
(PID.TID 0000.0001)  readBinaryPrec = /* Precision used for reading binary files */
(PID.TID 0000.0001)                      64
(PID.TID 0000.0001)     ;
(PID.TID 0000.0001) writeBinaryPrec = /* Precision used for writing binary files */
(PID.TID 0000.0001)                      32
(PID.TID 0000.0001)     ;
(PID.TID 0000.0001)  globalFiles = /* write "global" (=not per tile) files */
(PID.TID 0000.0001)                   F
(PID.TID 0000.0001)     ;
(PID.TID 0000.0001)  useSingleCpuIO = /* only master MPI process does I/O */
(PID.TID 0000.0001)                   F
(PID.TID 0000.0001)     ;
(PID.TID 0000.0001)  debugMode  =  /* Debug Mode on/off flag */
(PID.TID 0000.0001)                   F
(PID.TID 0000.0001)     ;
(PID.TID 0000.0001)    debLevA  =  /* 1rst level of debugging */
(PID.TID 0000.0001)                       1
(PID.TID 0000.0001)     ;
(PID.TID 0000.0001)    debLevB  =  /* 2nd  level of debugging */
(PID.TID 0000.0001)                       2
(PID.TID 0000.0001)     ;
(PID.TID 0000.0001)  debugLevel =  /* select debugging level */
(PID.TID 0000.0001)                       1
(PID.TID 0000.0001)     ;
(PID.TID 0000.0001) //
(PID.TID 0000.0001) // Elliptic solver(s) paramters ( PARM02 in namelist )
(PID.TID 0000.0001) //
(PID.TID 0000.0001) cg2dMaxIters =   /* Upper limit on 2d con. grad iterations  */
(PID.TID 0000.0001)                     200
(PID.TID 0000.0001)     ;
(PID.TID 0000.0001) cg2dChkResFreq =   /* 2d con. grad convergence test frequency */
(PID.TID 0000.0001)                       1
(PID.TID 0000.0001)     ;
[...]
(PID.TID 0000.0001) %MON dynstat_wvel_max             =   1.6805481791262E-04
(PID.TID 0000.0001) %MON dynstat_wvel_min             =  -2.5871941118637E-04
(PID.TID 0000.0001) %MON dynstat_wvel_mean            =  -9.2832497753116E-23
(PID.TID 0000.0001) %MON dynstat_wvel_sd              =   5.3077248883062E-06
(PID.TID 0000.0001) %MON dynstat_wvel_del2            =   1.6069528503921E-06
(PID.TID 0000.0001) %MON dynstat_theta_max            =   3.0932088655581E+01
(PID.TID 0000.0001) %MON dynstat_theta_min            =  -3.0345547615086E+00
(PID.TID 0000.0001) %MON dynstat_theta_mean           =   3.9089299610102E+00
(PID.TID 0000.0001) %MON dynstat_theta_sd             =   4.5708598861135E+00
(PID.TID 0000.0001) %MON dynstat_theta_del2           =   8.7682725126548E-02
(PID.TID 0000.0001) %MON dynstat_salt_max             =   4.1386577108976E+01
(PID.TID 0000.0001) %MON dynstat_salt_min             =   1.8383518598477E+01
(PID.TID 0000.0001) %MON dynstat_salt_mean            =   3.4772067412738E+01
(PID.TID 0000.0001) %MON dynstat_salt_sd              =   5.3152145384811E-01
(PID.TID 0000.0001) %MON dynstat_salt_del2            =   1.8680912494978E-02
(PID.TID 0000.0001) %MON advcfl_uvel_max              =   3.4590726073608E-03
(PID.TID 0000.0001) %MON advcfl_vvel_max              =   3.6025087727702E-03
(PID.TID 0000.0001) %MON advcfl_wvel_max              =   3.5146787934752E-03
(PID.TID 0000.0001) %MON advcfl_W_hf_max              =   5.0724620993508E-03
(PID.TID 0000.0001) %MON pe_b_mean                    =   4.7704225185094E-04
(PID.TID 0000.0001) %MON ke_max                       =   4.1400865027934E-02
(PID.TID 0000.0001) %MON ke_mean                      =   1.5229612568058E-04
(PID.TID 0000.0001) %MON ke_vol                       =   1.3398024453628E+18
(PID.TID 0000.0001) %MON vort_r_min                   =  -1.4640500133635E-06
(PID.TID 0000.0001) %MON vort_r_max                   =   1.4913321916479E-06
(PID.TID 0000.0001) %MON vort_a_mean                  =  -2.0549865324846E-05
(PID.TID 0000.0001) %MON vort_a_sd                    =   7.5259522006644E-05
(PID.TID 0000.0001) %MON vort_p_mean                  =  -2.4783522345032E-05
(PID.TID 0000.0001) %MON vort_p_sd                    =   1.2810654264827E-04
(PID.TID 0000.0001) %MON surfExpan_theta_mean         =   2.3420909969151E-07
(PID.TID 0000.0001) %MON surfExpan_salt_mean          =   5.0772354377810E-08
(PID.TID 0000.0001) // =======================================================
(PID.TID 0000.0001) // End MONITOR dynamic field statistics
(PID.TID 0000.0001) // =======================================================
 cg2d: Sum(rhs),rhsMax =  -7.73070496506989E-11  4.24326081626834E+00
(PID.TID 0000.0001)                    cg2d_init_res =    1.05699382216787E-01
(PID.TID 0000.0001)                       cg2d_iters =    29
(PID.TID 0000.0001)                         cg2d_res =    1.90095562105028E-07
 cg3d: Sum(rhs),rhsMax =   8.15624097883112E-10  1.21904171773135E-03
(PID.TID 0000.0001)                    cg3d_init_res =    5.75496843129069E-01
(PID.TID 0000.0001)                       cg3d_iters =    46
(PID.TID 0000.0001)                         cg3d_res =    7.12895618003076E-10
(PID.TID 0000.0001) // =======================================================
(PID.TID 0000.0001) // Begin MONITOR dynamic field statistics
(PID.TID 0000.0001) // =======================================================
(PID.TID 0000.0001) %MON time_tsnumber                =                 86410
(PID.TID 0000.0001) %MON time_secondsf                =   3.1107600000000E+08
(PID.TID 0000.0001) %MON dynstat_eta_max              =   9.2524379999533E-01
(PID.TID 0000.0001) %MON dynstat_eta_min              =  -1.6142559023722E+00
(PID.TID 0000.0001) %MON dynstat_eta_mean             =   1.4207717586531E-14
(PID.TID 0000.0001) %MON dynstat_eta_sd               =   5.9847580944367E-01
(PID.TID 0000.0001) %MON dynstat_eta_del2             =   1.1442575134851E-02
(PID.TID 0000.0001) %MON dynstat_uvel_max             =   1.9922672325241E-01
(PID.TID 0000.0001) %MON dynstat_uvel_min             =  -2.9328322556916E-01
(PID.TID 0000.0001) %MON dynstat_uvel_mean            =  -4.9661947318436E-04
(PID.TID 0000.0001) %MON dynstat_uvel_sd              =   1.2571462574572E-02
(PID.TID 0000.0001) %MON dynstat_uvel_del2            =   1.8550925892365E-03
(PID.TID 0000.0001) %MON dynstat_vvel_max             =   1.9124067621496E-01
(PID.TID 0000.0001) %MON dynstat_vvel_min             =  -2.2996915214988E-01
(PID.TID 0000.0001) %MON dynstat_vvel_mean            =  -3.8117967251919E-04
(PID.TID 0000.0001) %MON dynstat_vvel_sd              =   1.3145997404212E-02
(PID.TID 0000.0001) %MON dynstat_vvel_del2            =   1.8757029822806E-03
(PID.TID 0000.0001) %MON dynstat_wvel_max             =   1.7233223319466E-04
(PID.TID 0000.0001) %MON dynstat_wvel_min             =  -2.6269950069048E-04
(PID.TID 0000.0001) %MON dynstat_wvel_mean            =   9.2832497753116E-23
(PID.TID 0000.0001) %MON dynstat_wvel_sd              =   5.5317609477962E-06
(PID.TID 0000.0001) %MON dynstat_wvel_del2            =   1.7013579806427E-06
(PID.TID 0000.0001) %MON dynstat_theta_max            =   3.0932817802471E+01
(PID.TID 0000.0001) %MON dynstat_theta_min            =  -3.0366582533003E+00
(PID.TID 0000.0001) %MON dynstat_theta_mean           =   3.9089321396158E+00
(PID.TID 0000.0001) %MON dynstat_theta_sd             =   4.5708600645449E+00
(PID.TID 0000.0001) %MON dynstat_theta_del2           =   8.7682784078429E-02
(PID.TID 0000.0001) %MON dynstat_salt_max             =   4.1386635072026E+01
(PID.TID 0000.0001) %MON dynstat_salt_min             =   1.8383530863805E+01
(PID.TID 0000.0001) %MON dynstat_salt_mean            =   3.4772067396006E+01
(PID.TID 0000.0001) %MON dynstat_salt_sd              =   5.3152156906691E-01
(PID.TID 0000.0001) %MON dynstat_salt_del2            =   1.8681299147777E-02
(PID.TID 0000.0001) %MON advcfl_uvel_max              =   3.4658619153741E-03
(PID.TID 0000.0001) %MON advcfl_vvel_max              =   3.6311130904885E-03
(PID.TID 0000.0001) %MON advcfl_wvel_max              =   3.5687479339084E-03
(PID.TID 0000.0001) %MON advcfl_W_hf_max              =   5.0218984510466E-03
(PID.TID 0000.0001) %MON pe_b_mean                    =   4.7715301728434E-04
(PID.TID 0000.0001) %MON ke_max                       =   4.1519539079144E-02
(PID.TID 0000.0001) %MON ke_mean                      =   1.5296121714483E-04
(PID.TID 0000.0001) %MON ke_vol                       =   1.3398024453628E+18
(PID.TID 0000.0001) %MON vort_r_min                   =  -1.4656636482509E-06
(PID.TID 0000.0001) %MON vort_r_max                   =   1.4830092076980E-06
(PID.TID 0000.0001) %MON vort_a_mean                  =  -2.0549865324846E-05
(PID.TID 0000.0001) %MON vort_a_sd                    =   7.5259521266964E-05
(PID.TID 0000.0001) %MON vort_p_mean                  =  -2.4783522345032E-05
(PID.TID 0000.0001) %MON vort_p_sd                    =   1.2810653798621E-04
(PID.TID 0000.0001) %MON surfExpan_theta_mean         =   2.5901800953246E-07
(PID.TID 0000.0001) %MON surfExpan_salt_mean          =   4.9439198739614E-08
(PID.TID 0000.0001) // =======================================================
(PID.TID 0000.0001) // End MONITOR dynamic field statistics
(PID.TID 0000.0001) // =======================================================
(PID.TID 0000.0001) %CHECKPOINT     86410 ckptA
(PID.TID 0000.0001)   Seconds in section "ALL                    [THE_MODEL_MAIN]":
(PID.TID 0000.0001)           User time:  61.6326303
(PID.TID 0000.0001)         System time:  0.692895029
(PID.TID 0000.0001)     Wall clock time:  62.9589012
(PID.TID 0000.0001)          No. starts: 1
(PID.TID 0000.0001)           No. stops: 1
(PID.TID 0000.0001)   Seconds in section "INITIALISE_FIXED       [THE_MODEL_MAIN]":
(PID.TID 0000.0001)           User time:  0.765884019
(PID.TID 0000.0001)         System time:  0.106984001
(PID.TID 0000.0001)     Wall clock time:  0.9050982
(PID.TID 0000.0001)          No. starts: 1
(PID.TID 0000.0001)           No. stops: 1
(PID.TID 0000.0001)   Seconds in section "THE_MAIN_LOOP          [THE_MODEL_MAIN]":
(PID.TID 0000.0001)           User time:  60.5847905
(PID.TID 0000.0001)         System time:  0.364944987
(PID.TID 0000.0001)     Wall clock time:  61.551378
(PID.TID 0000.0001)          No. starts: 1
(PID.TID 0000.0001)           No. stops: 1
(PID.TID 0000.0001)   Seconds in section "INITIALISE_VARIA    [THE_MAIN_LOOP]":
(PID.TID 0000.0001)           User time:  0.881866038
(PID.TID 0000.0001)         System time:  0.138978995
(PID.TID 0000.0001)     Wall clock time:  1.02066517
(PID.TID 0000.0001)          No. starts: 1
(PID.TID 0000.0001)           No. stops: 1
(PID.TID 0000.0001)   Seconds in section "MAIN LOOP           [THE_MAIN_LOOP]":
(PID.TID 0000.0001)           User time:  59.3449795
(PID.TID 0000.0001)         System time:  0.128980994
(PID.TID 0000.0001)     Wall clock time:  60.0698988
(PID.TID 0000.0001)          No. starts: 1
(PID.TID 0000.0001)           No. stops: 1
(PID.TID 0000.0001)   Seconds in section "FORWARD_STEP        [THE_MAIN_LOOP]":
(PID.TID 0000.0001)           User time:  59.3449795
(PID.TID 0000.0001)         System time:  0.128980994
(PID.TID 0000.0001)     Wall clock time:  60.0695155
(PID.TID 0000.0001)          No. starts: 10
(PID.TID 0000.0001)           No. stops: 10
(PID.TID 0000.0001)   Seconds in section "LOAD_FIELDS_DRIVER  [FORWARD_STEP]":
(PID.TID 0000.0001)           User time:  0.059987545
(PID.TID 0000.0001)         System time:  0.00200000405
(PID.TID 0000.0001)     Wall clock time:  0.0603408813
(PID.TID 0000.0001)          No. starts: 10
(PID.TID 0000.0001)           No. stops: 10
(PID.TID 0000.0001)   Seconds in section "EXTERNAL_FLDS_LOAD [LOAD_FLDS_DRIVER]":
(PID.TID 0000.0001)           User time:  0.059987545
(PID.TID 0000.0001)         System time:  0.00200000405
(PID.TID 0000.0001)     Wall clock time:  0.0596251488
(PID.TID 0000.0001)          No. starts: 10
(PID.TID 0000.0001)           No. stops: 10
(PID.TID 0000.0001)   Seconds in section "DO_ATMOSPHERIC_PHYS [FORWARD_STEP]":
(PID.TID 0000.0001)           User time:  0.
(PID.TID 0000.0001)         System time:  0.
(PID.TID 0000.0001)     Wall clock time:  0.000344276428
(PID.TID 0000.0001)          No. starts: 10
(PID.TID 0000.0001)           No. stops: 10
(PID.TID 0000.0001)   Seconds in section "DO_OCEANIC_PHYS     [FORWARD_STEP]":
(PID.TID 0000.0001)           User time:  3.61345696
(PID.TID 0000.0001)         System time:  0.00599899888
(PID.TID 0000.0001)     Wall clock time:  3.61854577
(PID.TID 0000.0001)          No. starts: 10
(PID.TID 0000.0001)           No. stops: 10
(PID.TID 0000.0001)   Seconds in section "DYNAMICS            [FORWARD_STEP]":
(PID.TID 0000.0001)           User time:  11.4282622
(PID.TID 0000.0001)         System time:  0.00499996543
(PID.TID 0000.0001)     Wall clock time:  11.44591
(PID.TID 0000.0001)          No. starts: 10
(PID.TID 0000.0001)           No. stops: 10
(PID.TID 0000.0001)   Seconds in section "CALC_GW          [DYNAMICS]":
(PID.TID 0000.0001)           User time:  2.89655471
(PID.TID 0000.0001)         System time:  0.000999987125
(PID.TID 0000.0001)     Wall clock time:  2.89785576
(PID.TID 0000.0001)          No. starts: 60
(PID.TID 0000.0001)           No. stops: 60
(PID.TID 0000.0001)   Seconds in section "SOLVE_FOR_PRESSURE  [FORWARD_STEP]":
(PID.TID 0000.0001)           User time:  32.8909984
(PID.TID 0000.0001)         System time:  0.00899705291
(PID.TID 0000.0001)     Wall clock time:  33.4736223
(PID.TID 0000.0001)          No. starts: 10
(PID.TID 0000.0001)           No. stops: 10
(PID.TID 0000.0001)   Seconds in section "CG3D   [SOLVE_FOR_PRESSURE]":
(PID.TID 0000.0001)           User time:  30.6783388
(PID.TID 0000.0001)         System time:  0.00799706578
(PID.TID 0000.0001)     Wall clock time:  31.2649198
(PID.TID 0000.0001)          No. starts: 10
(PID.TID 0000.0001)           No. stops: 10
(PID.TID 0000.0001)   Seconds in section "MOM_CORRECTION_STEP [FORWARD_STEP]":
(PID.TID 0000.0001)           User time:  0.663897991
(PID.TID 0000.0001)         System time:  0.00300002098
(PID.TID 0000.0001)     Wall clock time:  0.671953917
(PID.TID 0000.0001)          No. starts: 10
(PID.TID 0000.0001)           No. stops: 10
(PID.TID 0000.0001)   Seconds in section "UPDATE_ETAH         [FORWARD_STEP]":
(PID.TID 0000.0001)           User time:  0.00800418854
(PID.TID 0000.0001)         System time:  0.
(PID.TID 0000.0001)     Wall clock time:  0.00582456589
(PID.TID 0000.0001)          No. starts: 10
(PID.TID 0000.0001)           No. stops: 10
(PID.TID 0000.0001)   Seconds in section "BLOCKING_EXCHANGES  [FORWARD_STEP]":
(PID.TID 0000.0001)           User time:  0.611904621
(PID.TID 0000.0001)         System time:  0.000999987125
(PID.TID 0000.0001)     Wall clock time:  0.612854481
(PID.TID 0000.0001)          No. starts: 20
(PID.TID 0000.0001)           No. stops: 20
(PID.TID 0000.0001)   Seconds in section "THERMODYNAMICS      [FORWARD_STEP]":
(PID.TID 0000.0001)           User time:  5.42116737
(PID.TID 0000.0001)         System time:  0.00299996138
(PID.TID 0000.0001)     Wall clock time:  5.4297781
(PID.TID 0000.0001)          No. starts: 10
(PID.TID 0000.0001)           No. stops: 10
(PID.TID 0000.0001)   Seconds in section "TRC_CORRECTION_STEP [FORWARD_STEP]":
(PID.TID 0000.0001)           User time:  0.105985165
(PID.TID 0000.0001)         System time:  0.
(PID.TID 0000.0001)     Wall clock time:  0.106286287
(PID.TID 0000.0001)          No. starts: 10
(PID.TID 0000.0001)           No. stops: 10
(PID.TID 0000.0001)   Seconds in section "DO_STATEVARS_TAVE   [FORWARD_STEP]":
(PID.TID 0000.0001)           User time:  1.89271021
(PID.TID 0000.0001)         System time:  0.
(PID.TID 0000.0001)     Wall clock time:  1.89145637
(PID.TID 0000.0001)          No. starts: 10
(PID.TID 0000.0001)           No. stops: 10
(PID.TID 0000.0001)   Seconds in section "MONITOR             [FORWARD_STEP]":
(PID.TID 0000.0001)           User time:  2.50462532
(PID.TID 0000.0001)         System time:  0.
(PID.TID 0000.0001)     Wall clock time:  2.50812769
(PID.TID 0000.0001)          No. starts: 10
(PID.TID 0000.0001)           No. stops: 10
(PID.TID 0000.0001)   Seconds in section "DO_THE_MODEL_IO     [FORWARD_STEP]":
(PID.TID 0000.0001)           User time:  0.139979839
(PID.TID 0000.0001)         System time:  0.0989849865
(PID.TID 0000.0001)     Wall clock time:  0.238439322
(PID.TID 0000.0001)          No. starts: 10
(PID.TID 0000.0001)           No. stops: 10
(PID.TID 0000.0001)   Seconds in section "WRITE_CHECKPOINT    [FORWARD_STEP]":
(PID.TID 0000.0001)           User time:  0.
(PID.TID 0000.0001)         System time:  0.
(PID.TID 0000.0001)     Wall clock time:  0.000351905823
(PID.TID 0000.0001)          No. starts: 10
(PID.TID 0000.0001)           No. stops: 10
(PID.TID 0000.0001)   Seconds in section "WRITE_CHECKPOINT       [THE_MODEL_MAIN]":
(PID.TID 0000.0001)           User time:  0.281955719
(PID.TID 0000.0001)         System time:  0.220966041
(PID.TID 0000.0001)     Wall clock time:  0.502253056
(PID.TID 0000.0001)          No. starts: 1
(PID.TID 0000.0001)           No. stops: 1
(PID.TID 0000.0001) // ======================================================
(PID.TID 0000.0001) // Tile <-> Tile communication statistics
(PID.TID 0000.0001) // ======================================================
(PID.TID 0000.0001) // o Tile number: 000001
(PID.TID 0000.0001) //         No. X exchanges =              0
(PID.TID 0000.0001) //            Max. X spins =              0
(PID.TID 0000.0001) //            Min. X spins =     1000000000
(PID.TID 0000.0001) //          Total. X spins =              0
(PID.TID 0000.0001) //            Avg. X spins =       0.00E+00
(PID.TID 0000.0001) //         No. Y exchanges =              0
(PID.TID 0000.0001) //            Max. Y spins =              0
(PID.TID 0000.0001) //            Min. Y spins =     1000000000
(PID.TID 0000.0001) //          Total. Y spins =              0
(PID.TID 0000.0001) //            Avg. Y spins =       0.00E+00
(PID.TID 0000.0001) // o Tile number: 000002
(PID.TID 0000.0001) //         No. X exchanges =              0
(PID.TID 0000.0001) //            Max. X spins =              0
(PID.TID 0000.0001) //            Min. X spins =     1000000000
(PID.TID 0000.0001) //          Total. X spins =              0
(PID.TID 0000.0001) //            Avg. X spins =       0.00E+00
(PID.TID 0000.0001) //         No. Y exchanges =              0
(PID.TID 0000.0001) //            Max. Y spins =              0
(PID.TID 0000.0001) //            Min. Y spins =     1000000000
(PID.TID 0000.0001) //          Total. Y spins =              0
(PID.TID 0000.0001) //            Avg. Y spins =       0.00E+00
(PID.TID 0000.0001) // o Tile number: 000003
(PID.TID 0000.0001) //         No. X exchanges =              0
(PID.TID 0000.0001) //            Max. X spins =              0
(PID.TID 0000.0001) //            Min. X spins =     1000000000
(PID.TID 0000.0001) //          Total. X spins =              0
(PID.TID 0000.0001) //            Avg. X spins =       0.00E+00
(PID.TID 0000.0001) //         No. Y exchanges =              0
(PID.TID 0000.0001) //            Max. Y spins =              0
(PID.TID 0000.0001) //            Min. Y spins =     1000000000
(PID.TID 0000.0001) //          Total. Y spins =              0
(PID.TID 0000.0001) //            Avg. Y spins =       0.00E+00
(PID.TID 0000.0001) // o Tile number: 000004
(PID.TID 0000.0001) //         No. X exchanges =              0
(PID.TID 0000.0001) //            Max. X spins =              0
(PID.TID 0000.0001) //            Min. X spins =     1000000000
(PID.TID 0000.0001) //          Total. X spins =              0
(PID.TID 0000.0001) //            Avg. X spins =       0.00E+00
(PID.TID 0000.0001) //         No. Y exchanges =              0
(PID.TID 0000.0001) //            Max. Y spins =              0
(PID.TID 0000.0001) //            Min. Y spins =     1000000000
(PID.TID 0000.0001) //          Total. Y spins =              0
(PID.TID 0000.0001) //            Avg. Y spins =       0.00E+00
(PID.TID 0000.0001) // o Tile number: 000005
(PID.TID 0000.0001) //         No. X exchanges =              0
(PID.TID 0000.0001) //            Max. X spins =              0
(PID.TID 0000.0001) //            Min. X spins =     1000000000
(PID.TID 0000.0001) //          Total. X spins =              0
(PID.TID 0000.0001) //            Avg. X spins =       0.00E+00
(PID.TID 0000.0001) //         No. Y exchanges =              0
(PID.TID 0000.0001) //            Max. Y spins =              0
(PID.TID 0000.0001) //            Min. Y spins =     1000000000
(PID.TID 0000.0001) //          Total. Y spins =              0
(PID.TID 0000.0001) //            Avg. Y spins =       0.00E+00
(PID.TID 0000.0001) // o Tile number: 000006
(PID.TID 0000.0001) //         No. X exchanges =              0
(PID.TID 0000.0001) //            Max. X spins =              0
(PID.TID 0000.0001) //            Min. X spins =     1000000000
(PID.TID 0000.0001) //          Total. X spins =              0
(PID.TID 0000.0001) //            Avg. X spins =       0.00E+00
(PID.TID 0000.0001) //         No. Y exchanges =              0
(PID.TID 0000.0001) //            Max. Y spins =              0
(PID.TID 0000.0001) //            Min. Y spins =     1000000000
(PID.TID 0000.0001) //          Total. Y spins =              0
(PID.TID 0000.0001) //            Avg. Y spins =       0.00E+00
(PID.TID 0000.0001) // o Thread number: 000001
(PID.TID 0000.0001) //            No. barriers =          17088
(PID.TID 0000.0001) //      Max. barrier spins =              1
(PID.TID 0000.0001) //      Min. barrier spins =              1
(PID.TID 0000.0001) //     Total barrier spins =          17088
(PID.TID 0000.0001) //      Avg. barrier spins =       1.00E+00
