(PID.TID 0000.0001) 
(PID.TID 0000.0001) // ======================================================
(PID.TID 0000.0001) //                      MITgcm UV
(PID.TID 0000.0001) //                      =========
(PID.TID 0000.0001) // ======================================================
(PID.TID 0000.0001) // execution environment starting up...
(PID.TID 0000.0001) 
(PID.TID 0000.0001) // MITgcmUV version:  checkpoint61i
(PID.TID 0000.0001) // Build user:        jmc
(PID.TID 0000.0001) // Build host:        faulks
(PID.TID 0000.0001) // Build date:        Thu Feb 26 20:51:21 EST 2009
(PID.TID 0000.0001) 
(PID.TID 0000.0001) // =======================================================
(PID.TID 0000.0001) // Execution Environment parameter file "eedata"
(PID.TID 0000.0001) // =======================================================
(PID.TID 0000.0001) ># Example "eedata" file
(PID.TID 0000.0001) ># Lines beginning "#" are comments
(PID.TID 0000.0001) ># nTx - No. threads per process in X
(PID.TID 0000.0001) ># nTy - No. threads per process in Y
(PID.TID 0000.0001) > &EEPARMS
(PID.TID 0000.0001) > useCubedSphereExchange=.TRUE.,
(PID.TID 0000.0001) > nTx=1,
(PID.TID 0000.0001) > nTy=1,
(PID.TID 0000.0001) > &
(PID.TID 0000.0001) ># Note: Some systems use & as the
(PID.TID 0000.0001) ># namelist terminator. Other systems
(PID.TID 0000.0001) ># use a / character (as shown here).
(PID.TID 0000.0001) 
(PID.TID 0000.0001) // =======================================================
(PID.TID 0000.0001) // Computational Grid Specification ( see files "SIZE.h" )
(PID.TID 0000.0001) //                                  ( and "eedata"       )
(PID.TID 0000.0001) // =======================================================
(PID.TID 0000.0001)      nPx =    1 ; /* No. processes in X */
(PID.TID 0000.0001)      nPy =    1 ; /* No. processes in Y */
(PID.TID 0000.0001)      nSx =    6 ; /* No. tiles in X per process */
(PID.TID 0000.0001)      nSy =    1 ; /* No. tiles in Y per process */
(PID.TID 0000.0001)      sNx =   32 ; /* Tile size in X */
(PID.TID 0000.0001)      sNy =   32 ; /* Tile size in Y */
(PID.TID 0000.0001)      OLx =    4 ; /* Tile overlap distance in X */
(PID.TID 0000.0001)      OLy =    4 ; /* Tile overlap distance in Y */
(PID.TID 0000.0001)      nTx =    1 ; /* No. threads in X per process */
(PID.TID 0000.0001)      nTy =    1 ; /* No. threads in Y per process */
(PID.TID 0000.0001)       Nr =   15 ; /* No. levels in the vertical   */
(PID.TID 0000.0001)       nX =  192 ; /* Total domain size in X ( = nPx*nSx*sNx ) */
(PID.TID 0000.0001)       nY =   32 ; /* Total domain size in Y ( = nPy*nSy*sNy ) */
(PID.TID 0000.0001)   nTiles =    6 ; /* Total no. tiles per process ( = nSx*nSy ) */
(PID.TID 0000.0001)   nProcs =    1 ; /* Total no. processes ( = nPx*nPy ) */
(PID.TID 0000.0001) nThreads =    1 ; /* Total no. threads per process ( = nTx*nTy ) */
(PID.TID 0000.0001) usingMPI =    F ; /* Flag used to control whether MPI is in use */
(PID.TID 0000.0001)                   /*  note: To execute a program with MPI calls */
(PID.TID 0000.0001)                   /*  it must be launched appropriately e.g     */
(PID.TID 0000.0001)                   /*  "mpirun -np 64 ......"                    */
(PID.TID 0000.0001) useCoupler=   F ; /* Flag used to control communications with */
(PID.TID 0000.0001)                   /*  other model components, through a coupler */
(PID.TID 0000.0001) 
(PID.TID 0000.0001) // ======================================================
(PID.TID 0000.0001) // Mapping of tiles to threads
(PID.TID 0000.0001) // ======================================================
(PID.TID 0000.0001) // -o- Thread   1, tiles (   1:   6,   1:   1)
(PID.TID 0000.0001) 
(PID.TID 0000.0001) // ======================================================
(PID.TID 0000.0001) // Tile <-> Tile connectvity table
(PID.TID 0000.0001) // ======================================================
(PID.TID 0000.0001) // Tile number: 000001 (process no. = 000001)
(PID.TID 0000.0001) //        WEST: Tile = 000006, Process = 000001, Comm = put
(PID.TID 0000.0001) //                bi = 000006, bj = 000001
(PID.TID 0000.0001) //        EAST: Tile = 000002, Process = 000001, Comm = put
(PID.TID 0000.0001) //                bi = 000002, bj = 000001
(PID.TID 0000.0001) //       SOUTH: Tile = 000001, Process = 000001, Comm = put
(PID.TID 0000.0001) //                bi = 000001, bj = 000001
(PID.TID 0000.0001) //       NORTH: Tile = 000001, Process = 000001, Comm = put
(PID.TID 0000.0001) //                bi = 000001, bj = 000001
(PID.TID 0000.0001) // Tile number: 000002 (process no. = 000001)
(PID.TID 0000.0001) //        WEST: Tile = 000001, Process = 000001, Comm = put
(PID.TID 0000.0001) //                bi = 000001, bj = 000001
(PID.TID 0000.0001) //        EAST: Tile = 000003, Process = 000001, Comm = put
(PID.TID 0000.0001) //                bi = 000003, bj = 000001
(PID.TID 0000.0001) //       SOUTH: Tile = 000002, Process = 000001, Comm = put
(PID.TID 0000.0001) //                bi = 000002, bj = 000001
(PID.TID 0000.0001) //       NORTH: Tile = 000002, Process = 000001, Comm = put
(PID.TID 0000.0001) //                bi = 000002, bj = 000001
(PID.TID 0000.0001) // Tile number: 000003 (process no. = 000001)
(PID.TID 0000.0001) //        WEST: Tile = 000002, Process = 000001, Comm = put
(PID.TID 0000.0001) //                bi = 000002, bj = 000001
(PID.TID 0000.0001) //        EAST: Tile = 000004, Process = 000001, Comm = put
(PID.TID 0000.0001) //                bi = 000004, bj = 000001
(PID.TID 0000.0001) //       SOUTH: Tile = 000003, Process = 000001, Comm = put
(PID.TID 0000.0001) //                bi = 000003, bj = 000001
(PID.TID 0000.0001) //       NORTH: Tile = 000003, Process = 000001, Comm = put
(PID.TID 0000.0001) //                bi = 000003, bj = 000001
(PID.TID 0000.0001) // Tile number: 000004 (process no. = 000001)
(PID.TID 0000.0001) //        WEST: Tile = 000003, Process = 000001, Comm = put
(PID.TID 0000.0001) //                bi = 000003, bj = 000001
(PID.TID 0000.0001) //        EAST: Tile = 000005, Process = 000001, Comm = put
(PID.TID 0000.0001) //                bi = 000005, bj = 000001
(PID.TID 0000.0001) //       SOUTH: Tile = 000004, Process = 000001, Comm = put
(PID.TID 0000.0001) //                bi = 000004, bj = 000001
(PID.TID 0000.0001) //       NORTH: Tile = 000004, Process = 000001, Comm = put
(PID.TID 0000.0001) //                bi = 000004, bj = 000001
(PID.TID 0000.0001) // Tile number: 000005 (process no. = 000001)
(PID.TID 0000.0001) //        WEST: Tile = 000004, Process = 000001, Comm = put
(PID.TID 0000.0001) //                bi = 000004, bj = 000001
(PID.TID 0000.0001) //        EAST: Tile = 000006, Process = 000001, Comm = put
(PID.TID 0000.0001) //                bi = 000006, bj = 000001
(PID.TID 0000.0001) //       SOUTH: Tile = 000005, Process = 000001, Comm = put
(PID.TID 0000.0001) //                bi = 000005, bj = 000001
(PID.TID 0000.0001) //       NORTH: Tile = 000005, Process = 000001, Comm = put
(PID.TID 0000.0001) //                bi = 000005, bj = 000001
(PID.TID 0000.0001) // Tile number: 000006 (process no. = 000001)
(PID.TID 0000.0001) //        WEST: Tile = 000005, Process = 000001, Comm = put
(PID.TID 0000.0001) //                bi = 000005, bj = 000001
(PID.TID 0000.0001) //        EAST: Tile = 000001, Process = 000001, Comm = put
(PID.TID 0000.0001) //                bi = 000001, bj = 000001
(PID.TID 0000.0001) //       SOUTH: Tile = 000006, Process = 000001, Comm = put
(PID.TID 0000.0001) //                bi = 000006, bj = 000001
(PID.TID 0000.0001) //       NORTH: Tile = 000006, Process = 000001, Comm = put
(PID.TID 0000.0001) //                bi = 000006, bj = 000001
(PID.TID 0000.0001) 
(PID.TID 0000.0001) ===== W2 TILE TOPLOGY =====
(PID.TID 0000.0001)  TILE:    1
(PID.TID 0000.0001)       NEIGHBOUR    1 = TILE    3 Comm = PUT ( PROC =    1)
(PID.TID 0000.0001)       NEIGHBOUR    2 = TILE    6 Comm = PUT ( PROC =    1)
(PID.TID 0000.0001)       NEIGHBOUR    3 = TILE    2 Comm = PUT ( PROC =    1)
(PID.TID 0000.0001)       NEIGHBOUR    4 = TILE    5 Comm = PUT ( PROC =    1)
(PID.TID 0000.0001)  TILE:    2
(PID.TID 0000.0001)       NEIGHBOUR    1 = TILE    3 Comm = PUT ( PROC =    1)
(PID.TID 0000.0001)       NEIGHBOUR    2 = TILE    6 Comm = PUT ( PROC =    1)
(PID.TID 0000.0001)       NEIGHBOUR    3 = TILE    4 Comm = PUT ( PROC =    1)
(PID.TID 0000.0001)       NEIGHBOUR    4 = TILE    1 Comm = PUT ( PROC =    1)
(PID.TID 0000.0001)  TILE:    3
(PID.TID 0000.0001)       NEIGHBOUR    1 = TILE    5 Comm = PUT ( PROC =    1)
(PID.TID 0000.0001)       NEIGHBOUR    2 = TILE    2 Comm = PUT ( PROC =    1)
(PID.TID 0000.0001)       NEIGHBOUR    3 = TILE    4 Comm = PUT ( PROC =    1)
(PID.TID 0000.0001)       NEIGHBOUR    4 = TILE    1 Comm = PUT ( PROC =    1)
(PID.TID 0000.0001)  TILE:    4
(PID.TID 0000.0001)       NEIGHBOUR    1 = TILE    5 Comm = PUT ( PROC =    1)
(PID.TID 0000.0001)       NEIGHBOUR    2 = TILE    2 Comm = PUT ( PROC =    1)
(PID.TID 0000.0001)       NEIGHBOUR    3 = TILE    6 Comm = PUT ( PROC =    1)
(PID.TID 0000.0001)       NEIGHBOUR    4 = TILE    3 Comm = PUT ( PROC =    1)
(PID.TID 0000.0001)  TILE:    5
(PID.TID 0000.0001)       NEIGHBOUR    1 = TILE    1 Comm = PUT ( PROC =    1)
(PID.TID 0000.0001)       NEIGHBOUR    2 = TILE    4 Comm = PUT ( PROC =    1)
(PID.TID 0000.0001)       NEIGHBOUR    3 = TILE    6 Comm = PUT ( PROC =    1)
(PID.TID 0000.0001)       NEIGHBOUR    4 = TILE    3 Comm = PUT ( PROC =    1)
(PID.TID 0000.0001)  TILE:    6
(PID.TID 0000.0001)       NEIGHBOUR    1 = TILE    1 Comm = PUT ( PROC =    1)
(PID.TID 0000.0001)       NEIGHBOUR    2 = TILE    4 Comm = PUT ( PROC =    1)
(PID.TID 0000.0001)       NEIGHBOUR    3 = TILE    2 Comm = PUT ( PROC =    1)
(PID.TID 0000.0001)       NEIGHBOUR    4 = TILE    5 Comm = PUT ( PROC =    1)
(PID.TID 0000.0001) Tile     1 (pr=   1) sends pts i=  36:  -3, j=  29:  32
(PID.TID 0000.0001)                         to pts i=  -3:   0, j=  -3:  36 in tile      3 (pr=   1)
(PID.TID 0000.0001) Tile     1 (pr=   1) sends pts i=  -3:  36, j=   1:   4
(PID.TID 0000.0001)                         to pts i=  -3:  36, j=  33:  36 in tile      6 (pr=   1)
(PID.TID 0000.0001) Tile     1 (pr=   1) sends pts i=  29:  32, j=  -3:  36
(PID.TID 0000.0001)                         to pts i=  -3:   0, j=  -3:  36 in tile      2 (pr=   1)
(PID.TID 0000.0001) Tile     1 (pr=   1) sends pts i=   1:   4, j=  36:  -3
(PID.TID 0000.0001)                         to pts i=  -3:  36, j=  33:  36 in tile      5 (pr=   1)
(PID.TID 0000.0001) Tile     2 (pr=   1) sends pts i=  -3:  36, j=  29:  32
(PID.TID 0000.0001)                         to pts i=  -3:  36, j=  -3:   0 in tile      3 (pr=   1)
(PID.TID 0000.0001) Tile     2 (pr=   1) sends pts i=  36:  -3, j=   1:   4
(PID.TID 0000.0001)                         to pts i=  33:  36, j=  -3:  36 in tile      6 (pr=   1)
(PID.TID 0000.0001) Tile     2 (pr=   1) sends pts i=  29:  32, j=  36:  -3
(PID.TID 0000.0001)                         to pts i=  -3:  36, j=  -3:   0 in tile      4 (pr=   1)
(PID.TID 0000.0001) Tile     2 (pr=   1) sends pts i=   1:   4, j=  -3:  36
(PID.TID 0000.0001)                         to pts i=  33:  36, j=  -3:  36 in tile      1 (pr=   1)
(PID.TID 0000.0001) Tile     3 (pr=   1) sends pts i=  36:  -3, j=  29:  32
(PID.TID 0000.0001)                         to pts i=  -3:   0, j=  -3:  36 in tile      5 (pr=   1)
(PID.TID 0000.0001) Tile     3 (pr=   1) sends pts i=  -3:  36, j=   1:   4
(PID.TID 0000.0001)                         to pts i=  -3:  36, j=  33:  36 in tile      2 (pr=   1)
(PID.TID 0000.0001) Tile     3 (pr=   1) sends pts i=  29:  32, j=  -3:  36
(PID.TID 0000.0001)                         to pts i=  -3:   0, j=  -3:  36 in tile      4 (pr=   1)
(PID.TID 0000.0001) Tile     3 (pr=   1) sends pts i=   1:   4, j=  36:  -3
(PID.TID 0000.0001)                         to pts i=  -3:  36, j=  33:  36 in tile      1 (pr=   1)
(PID.TID 0000.0001) Tile     4 (pr=   1) sends pts i=  -3:  36, j=  29:  32
(PID.TID 0000.0001)                         to pts i=  -3:  36, j=  -3:   0 in tile      5 (pr=   1)
(PID.TID 0000.0001) Tile     4 (pr=   1) sends pts i=  36:  -3, j=   1:   4
(PID.TID 0000.0001)                         to pts i=  33:  36, j=  -3:  36 in tile      2 (pr=   1)
(PID.TID 0000.0001) Tile     4 (pr=   1) sends pts i=  29:  32, j=  36:  -3
(PID.TID 0000.0001)                         to pts i=  -3:  36, j=  -3:   0 in tile      6 (pr=   1)
(PID.TID 0000.0001) Tile     4 (pr=   1) sends pts i=   1:   4, j=  -3:  36
(PID.TID 0000.0001)                         to pts i=  33:  36, j=  -3:  36 in tile      3 (pr=   1)
(PID.TID 0000.0001) Tile     5 (pr=   1) sends pts i=  36:  -3, j=  29:  32
(PID.TID 0000.0001)                         to pts i=  -3:   0, j=  -3:  36 in tile      1 (pr=   1)
(PID.TID 0000.0001) Tile     5 (pr=   1) sends pts i=  -3:  36, j=   1:   4
(PID.TID 0000.0001)                         to pts i=  -3:  36, j=  33:  36 in tile      4 (pr=   1)
(PID.TID 0000.0001) Tile     5 (pr=   1) sends pts i=  29:  32, j=  -3:  36
(PID.TID 0000.0001)                         to pts i=  -3:   0, j=  -3:  36 in tile      6 (pr=   1)
(PID.TID 0000.0001) Tile     5 (pr=   1) sends pts i=   1:   4, j=  36:  -3
(PID.TID 0000.0001)                         to pts i=  -3:  36, j=  33:  36 in tile      3 (pr=   1)
(PID.TID 0000.0001) Tile     6 (pr=   1) sends pts i=  -3:  36, j=  29:  32
(PID.TID 0000.0001)                         to pts i=  -3:  36, j=  -3:   0 in tile      1 (pr=   1)
(PID.TID 0000.0001) Tile     6 (pr=   1) sends pts i=  36:  -3, j=   1:   4
(PID.TID 0000.0001)                         to pts i=  33:  36, j=  -3:  36 in tile      4 (pr=   1)
(PID.TID 0000.0001) Tile     6 (pr=   1) sends pts i=  29:  32, j=  36:  -3
(PID.TID 0000.0001)                         to pts i=  -3:  36, j=  -3:   0 in tile      2 (pr=   1)
(PID.TID 0000.0001) Tile     6 (pr=   1) sends pts i=   1:   4, j=  -3:  36
(PID.TID 0000.0001)                         to pts i=  33:  36, j=  -3:  36 in tile      5 (pr=   1)
(PID.TID 0000.0001) Tile     1 (pr=   1) recv pts i=  -3:  36, j=  33:  36 from tile     3 (pr=   1)
(PID.TID 0000.0001) Tile     1 (pr=   1) recv pts i=  -3:  36, j=  -3:   0 from tile     6 (pr=   1)
(PID.TID 0000.0001) Tile     1 (pr=   1) recv pts i=  33:  36, j=  -3:  36 from tile     2 (pr=   1)
(PID.TID 0000.0001) Tile     1 (pr=   1) recv pts i=  -3:   0, j=  -3:  36 from tile     5 (pr=   1)
(PID.TID 0000.0001) Tile     2 (pr=   1) recv pts i=  -3:  36, j=  33:  36 from tile     3 (pr=   1)
(PID.TID 0000.0001) Tile     2 (pr=   1) recv pts i=  -3:  36, j=  -3:   0 from tile     6 (pr=   1)
(PID.TID 0000.0001) Tile     2 (pr=   1) recv pts i=  33:  36, j=  -3:  36 from tile     4 (pr=   1)
(PID.TID 0000.0001) Tile     2 (pr=   1) recv pts i=  -3:   0, j=  -3:  36 from tile     1 (pr=   1)
(PID.TID 0000.0001) Tile     3 (pr=   1) recv pts i=  -3:  36, j=  33:  36 from tile     5 (pr=   1)
(PID.TID 0000.0001) Tile     3 (pr=   1) recv pts i=  -3:  36, j=  -3:   0 from tile     2 (pr=   1)
(PID.TID 0000.0001) Tile     3 (pr=   1) recv pts i=  33:  36, j=  -3:  36 from tile     4 (pr=   1)
(PID.TID 0000.0001) Tile     3 (pr=   1) recv pts i=  -3:   0, j=  -3:  36 from tile     1 (pr=   1)
(PID.TID 0000.0001) Tile     4 (pr=   1) recv pts i=  -3:  36, j=  33:  36 from tile     5 (pr=   1)
(PID.TID 0000.0001) Tile     4 (pr=   1) recv pts i=  -3:  36, j=  -3:   0 from tile     2 (pr=   1)
(PID.TID 0000.0001) Tile     4 (pr=   1) recv pts i=  33:  36, j=  -3:  36 from tile     6 (pr=   1)
(PID.TID 0000.0001) Tile     4 (pr=   1) recv pts i=  -3:   0, j=  -3:  36 from tile     3 (pr=   1)
(PID.TID 0000.0001) Tile     5 (pr=   1) recv pts i=  -3:  36, j=  33:  36 from tile     1 (pr=   1)
(PID.TID 0000.0001) Tile     5 (pr=   1) recv pts i=  -3:  36, j=  -3:   0 from tile     4 (pr=   1)
(PID.TID 0000.0001) Tile     5 (pr=   1) recv pts i=  33:  36, j=  -3:  36 from tile     6 (pr=   1)
(PID.TID 0000.0001) Tile     5 (pr=   1) recv pts i=  -3:   0, j=  -3:  36 from tile     3 (pr=   1)
(PID.TID 0000.0001) Tile     6 (pr=   1) recv pts i=  -3:  36, j=  33:  36 from tile     1 (pr=   1)
(PID.TID 0000.0001) Tile     6 (pr=   1) recv pts i=  -3:  36, j=  -3:   0 from tile     4 (pr=   1)
(PID.TID 0000.0001) Tile     6 (pr=   1) recv pts i=  33:  36, j=  -3:  36 from tile     2 (pr=   1)
(PID.TID 0000.0001) Tile     6 (pr=   1) recv pts i=  -3:   0, j=  -3:  36 from tile     5 (pr=   1)
(PID.TID 0000.0001) // =======================================================
(PID.TID 0000.0001) // Model parameter file "data"
(PID.TID 0000.0001) // =======================================================
(PID.TID 0000.0001) ># ====================
(PID.TID 0000.0001) ># | Model parameters |
(PID.TID 0000.0001) ># ====================
(PID.TID 0000.0001) >#
(PID.TID 0000.0001) ># Continuous equation parameters
(PID.TID 0000.0001) > &PARM01
(PID.TID 0000.0001) > tRef=15*20.,
(PID.TID 0000.0001) > sRef=15*35.,
(PID.TID 0000.0001) > viscAh =1.E5,
(PID.TID 0000.0001) >#- biharmonic Viscosity: 3.e15 is close to the stability limit with deltaTmom=20mn
(PID.TID 0000.0001) > viscA4 =3.E14,
(PID.TID 0000.0001) > viscAr =1.E-3,
(PID.TID 0000.0001) > diffKhT=0.,
(PID.TID 0000.0001) > diffK4T=0.,
(PID.TID 0000.0001) > diffKrT=3.E-5,
(PID.TID 0000.0001) > diffKhS=0.,
(PID.TID 0000.0001) > diffK4S=0.,
(PID.TID 0000.0001) > diffKrS=3.E-5,
(PID.TID 0000.0001) > ivdc_kappa=10.,
(PID.TID 0000.0001) > implicitDiffusion=.TRUE.,
(PID.TID 0000.0001) > gravity=9.81,
(PID.TID 0000.0001) > rhonil=1035.,
(PID.TID 0000.0001) > rhoConstFresh=1000.,
(PID.TID 0000.0001) > eosType='JMD95Z',
(PID.TID 0000.0001) > staggerTimeStep=.TRUE.,
(PID.TID 0000.0001) > vectorInvariantMomentum=.TRUE.,
(PID.TID 0000.0001) > implicitFreeSurface=.TRUE.,
(PID.TID 0000.0001) > exactConserv=.TRUE.,
(PID.TID 0000.0001) > nonHydrostatic=.TRUE.,
(PID.TID 0000.0001) > useNHMTerms=.TRUE.,
(PID.TID 0000.0001) > hFacInf=0.2,
(PID.TID 0000.0001) > hFacSup=2.0,
(PID.TID 0000.0001) > useRealFreshWaterFlux=.TRUE.,
(PID.TID 0000.0001) > allowFreezing=.TRUE.,
(PID.TID 0000.0001) > hFacMin=.1,
(PID.TID 0000.0001) > hFacMinDr=20.,
(PID.TID 0000.0001) > readBinaryPrec=64,
(PID.TID 0000.0001) > &
(PID.TID 0000.0001) >
(PID.TID 0000.0001) ># Elliptic solver parameters
(PID.TID 0000.0001) > &PARM02
(PID.TID 0000.0001) > cg2dMaxIters=200,
(PID.TID 0000.0001) >#cg2dTargetResidual=1.E-9,
(PID.TID 0000.0001) > cg2dTargetResWunit=1.E-14,
(PID.TID 0000.0001) > cg3dMaxIters=60,
(PID.TID 0000.0001) > cg3dTargetResidual=1.E-9,
(PID.TID 0000.0001) > &
(PID.TID 0000.0001) >
(PID.TID 0000.0001) ># Time stepping parameters
(PID.TID 0000.0001) > &PARM03
(PID.TID 0000.0001) > nIter0=86400,
(PID.TID 0000.0001) > nTimeSteps=10,
(PID.TID 0000.0001) > deltaTClock =3600.,
(PID.TID 0000.0001) > abEps = 0.12,
(PID.TID 0000.0001) > forcing_In_AB=.FALSE.,
(PID.TID 0000.0001) > pickupStrictlyMatch=.FALSE.,
(PID.TID 0000.0001) > pChkptFreq  =31104000.,
(PID.TID 0000.0001) >#chkptFreq   =311040000.,
(PID.TID 0000.0001) > taveFreq    =31104000.,
(PID.TID 0000.0001) > dumpFreq    =31104000.,
(PID.TID 0000.0001) > monitorFreq =86400.,
(PID.TID 0000.0001) > periodicExternalForcing=.TRUE.,
(PID.TID 0000.0001) > externForcingPeriod=2592000.,
(PID.TID 0000.0001) > externForcingCycle=31104000.,
(PID.TID 0000.0001) ># 2 months restoring timescale for temperature
(PID.TID 0000.0001) > tauThetaClimRelax = 5184000.,
(PID.TID 0000.0001) ># 2yrs restoring timescale for salinity
(PID.TID 0000.0001) > tauSaltClimRelax = 62208000.,
(PID.TID 0000.0001) > monitorFreq =1.,
(PID.TID 0000.0001) > &
(PID.TID 0000.0001) >
(PID.TID 0000.0001) ># Gridding parameters
(PID.TID 0000.0001) > &PARM04
(PID.TID 0000.0001) > usingCurvilinearGrid=.TRUE.,
(PID.TID 0000.0001) > horizGridFile='grid_cs32',
(PID.TID 0000.0001) > delR= 50., 70., 100., 140., 190.,
(PID.TID 0000.0001) >       240., 290., 340., 390., 440.,
(PID.TID 0000.0001) >       490., 540., 590., 640., 690.,
(PID.TID 0000.0001) > &
(PID.TID 0000.0001) >
(PID.TID 0000.0001) ># Input datasets
(PID.TID 0000.0001) > &PARM05
(PID.TID 0000.0001) > bathyFile      ='bathy_Hmin50.bin',
(PID.TID 0000.0001) > hydrogThetaFile='lev_T_cs_15k.bin',
(PID.TID 0000.0001) > hydrogSaltFile ='lev_S_cs_15k.bin',
(PID.TID 0000.0001) > zonalWindFile  ='trenberth_taux.bin',
(PID.TID 0000.0001) > meridWindFile  ='trenberth_tauy.bin',
(PID.TID 0000.0001) > thetaClimFile  ='lev_surfT_cs_12m.bin',
(PID.TID 0000.0001) > saltClimFile   ='lev_surfS_cs_12m.bin',
(PID.TID 0000.0001) > surfQFile      ='shiQnet_cs32.bin',
(PID.TID 0000.0001) > EmPmRFile      ='shiEmPR_cs32.bin',
(PID.TID 0000.0001) > &
(PID.TID 0000.0001) 
(PID.TID 0000.0001) S/R INI_PARMS ; starts to read PARM01
(PID.TID 0000.0001) S/R INI_PARMS ; read PARM01 : OK
(PID.TID 0000.0001) S/R INI_PARMS ; starts to read PARM02
(PID.TID 0000.0001) S/R INI_PARMS ; read PARM02 : OK
(PID.TID 0000.0001) S/R INI_PARMS ; starts to read PARM03
(PID.TID 0000.0001) S/R INI_PARMS ; read PARM03 : OK
(PID.TID 0000.0001) S/R INI_PARMS ; starts to read PARM04
(PID.TID 0000.0001) S/R INI_PARMS ; read PARM04 : OK
(PID.TID 0000.0001) S/R INI_PARMS ; starts to read PARM05
(PID.TID 0000.0001) S/R INI_PARMS ; read PARM05 : OK
(PID.TID 0000.0001)  PACKAGES_BOOT: opening data.pkg
(PID.TID 0000.0001)  OPEN_COPY_DATA_FILE: opening file data.pkg
(PID.TID 0000.0001) // =======================================================
(PID.TID 0000.0001) // Parameter file "data.pkg"
(PID.TID 0000.0001) // =======================================================
(PID.TID 0000.0001) ># Packages
(PID.TID 0000.0001) > &PACKAGES
(PID.TID 0000.0001) > useGMRedi=.TRUE.,
(PID.TID 0000.0001) >#useBulkforce=.TRUE.,
(PID.TID 0000.0001) >#useThSIce=.TRUE.,
(PID.TID 0000.0001) >#useDiagnostics=.TRUE.,
(PID.TID 0000.0001) >#useMNC=.TRUE.,
(PID.TID 0000.0001) > &
(PID.TID 0000.0001) 
(PID.TID 0000.0001)  PACKAGES_BOOT: finished reading data.pkg
(PID.TID 0000.0001)  GM_READPARMS: opening data.gmredi
(PID.TID 0000.0001)  OPEN_COPY_DATA_FILE: opening file data.gmredi
(PID.TID 0000.0001) // =======================================================
(PID.TID 0000.0001) // Parameter file "data.gmredi"
(PID.TID 0000.0001) // =======================================================
(PID.TID 0000.0001) ># GM+Redi package parameters:
(PID.TID 0000.0001) >
(PID.TID 0000.0001) >#-from MOM :
(PID.TID 0000.0001) ># GM_background_K: 	G & Mc.W  diffusion coefficient
(PID.TID 0000.0001) ># GM_maxSlope    :	max slope of isopycnals
(PID.TID 0000.0001) ># GM_Scrit       :	transition for scaling diffusion coefficient
(PID.TID 0000.0001) ># GM_Sd          :	half width scaling for diffusion coefficient
(PID.TID 0000.0001) ># GM_taper_scheme:	slope clipping or one of the tapering schemes
(PID.TID 0000.0001) ># GM_Kmin_horiz  :	horizontal diffusion minimum value
(PID.TID 0000.0001) >
(PID.TID 0000.0001) >#-Option parameters (needs to "define" options in GMREDI_OPTIONS.h")
(PID.TID 0000.0001) ># GM_isopycK     :	isopycnal diffusion coefficient (default=GM_background_K)
(PID.TID 0000.0001) ># GM_AdvForm     :	turn on GM Advective form       (default=Skew flux form)
(PID.TID 0000.0001) >
(PID.TID 0000.0001) > &GM_PARM01
(PID.TID 0000.0001) >  GM_background_K    = 800.,
(PID.TID 0000.0001) >  GM_taper_scheme    = 'gkw91',
(PID.TID 0000.0001) >  GM_maxSlope        = 1.e-2,
(PID.TID 0000.0001) >  GM_Kmin_horiz      = 50.,
(PID.TID 0000.0001) >  GM_Scrit           = 4.e-3,
(PID.TID 0000.0001) >  GM_Sd              = 1.e-3,
(PID.TID 0000.0001) ># GM_Visbeck_alpha   = 0.,
(PID.TID 0000.0001) ># GM_Visbeck_length  = 2.e+5,
(PID.TID 0000.0001) ># GM_Visbeck_depth   = 1.e+3,
(PID.TID 0000.0001) ># GM_Visbeck_maxval_K= 2.5e+3,
(PID.TID 0000.0001) > &
(PID.TID 0000.0001) >
(PID.TID 0000.0001) >
(PID.TID 0000.0001) 
(PID.TID 0000.0001)  GM_READPARMS: finished reading data.gmredi
(PID.TID 0000.0001) SET_PARMS: done
(PID.TID 0000.0001) Enter INI_VERTICAL_GRID: setInterFDr=    T ; setCenterDr=    F
(PID.TID 0000.0001) tile:   1 ; Read from file grid_cs32.face001.bin
(PID.TID 0000.0001)   => xC yC dxF dyF rA xG yG dxV dyU rAz dxC dyC rAw rAs dxG dyG AngleCS AngleSN
(PID.TID 0000.0001) tile:   2 ; Read from file grid_cs32.face002.bin
(PID.TID 0000.0001)   => xC yC dxF dyF rA xG yG dxV dyU rAz dxC dyC rAw rAs dxG dyG AngleCS AngleSN
(PID.TID 0000.0001) tile:   3 ; Read from file grid_cs32.face003.bin
(PID.TID 0000.0001)   => xC yC dxF dyF rA xG yG dxV dyU rAz dxC dyC rAw rAs dxG dyG AngleCS AngleSN
(PID.TID 0000.0001) tile:   4 ; Read from file grid_cs32.face004.bin
(PID.TID 0000.0001)   => xC yC dxF dyF rA xG yG dxV dyU rAz dxC dyC rAw rAs dxG dyG AngleCS AngleSN
(PID.TID 0000.0001) tile:   5 ; Read from file grid_cs32.face005.bin
(PID.TID 0000.0001)   => xC yC dxF dyF rA xG yG dxV dyU rAz dxC dyC rAw rAs dxG dyG AngleCS AngleSN
(PID.TID 0000.0001) tile:   6 ; Read from file grid_cs32.face006.bin
(PID.TID 0000.0001)   => xC yC dxF dyF rA xG yG dxV dyU rAz dxC dyC rAw rAs dxG dyG AngleCS AngleSN
(PID.TID 0000.0001) %MON XC_max                       =   1.7854351589505E+02
(PID.TID 0000.0001) %MON XC_min                       =  -1.7854351589505E+02
(PID.TID 0000.0001) %MON XC_mean                      =  -4.6999441375798E-15
(PID.TID 0000.0001) %MON XC_sd                        =   1.0355545336287E+02
(PID.TID 0000.0001) %MON XG_max                       =   1.8000000000000E+02
(PID.TID 0000.0001) %MON XG_min                       =  -1.7708797161002E+02
(PID.TID 0000.0001) %MON XG_mean                      =   1.8603515625000E+00
(PID.TID 0000.0001) %MON XG_sd                        =   1.0357130300504E+02
(PID.TID 0000.0001) %MON DXC_max                      =   3.2375185836900E+05
(PID.TID 0000.0001) %MON DXC_min                      =   1.1142031410131E+05
(PID.TID 0000.0001) %MON DXC_mean                     =   2.8605689051214E+05
(PID.TID 0000.0001) %MON DXC_sd                       =   3.4042087138252E+04
(PID.TID 0000.0001) %MON DXF_max                      =   3.2369947500827E+05
(PID.TID 0000.0001) %MON DXF_min                      =   1.2020820513318E+05
(PID.TID 0000.0001) %MON DXF_mean                     =   2.8605437324820E+05
(PID.TID 0000.0001) %MON DXF_sd                       =   3.4050524252539E+04
(PID.TID 0000.0001) %MON DXG_max                      =   3.2375195872773E+05
(PID.TID 0000.0001) %MON DXG_min                      =   1.0098378008791E+05
(PID.TID 0000.0001) %MON DXG_mean                     =   2.8603818508931E+05
(PID.TID 0000.0001) %MON DXG_sd                       =   3.4140406908005E+04
(PID.TID 0000.0001) %MON DXV_max                      =   3.2380418162750E+05
(PID.TID 0000.0001) %MON DXV_min                      =   8.0152299824136E+04
(PID.TID 0000.0001) %MON DXV_mean                     =   2.8603970633619E+05
(PID.TID 0000.0001) %MON DXV_sd                       =   3.4145142117723E+04
(PID.TID 0000.0001) %MON YC_max                       =   8.7940663871962E+01
(PID.TID 0000.0001) %MON YC_min                       =  -8.7940663871962E+01
(PID.TID 0000.0001) %MON YC_mean                      =   0.0000000000000E+00
(PID.TID 0000.0001) %MON YC_sd                        =   3.8676242969072E+01
(PID.TID 0000.0001) %MON YG_max                       =   9.0000000000000E+01
(PID.TID 0000.0001) %MON YG_min                       =  -9.0000000000000E+01
(PID.TID 0000.0001) %MON YG_mean                      =  -1.1842378929335E-15
(PID.TID 0000.0001) %MON YG_sd                        =   3.8676895860710E+01
(PID.TID 0000.0001) %MON DYC_max                      =   3.2375185836900E+05
(PID.TID 0000.0001) %MON DYC_min                      =   1.1142031410131E+05
(PID.TID 0000.0001) %MON DYC_mean                     =   2.8605689051214E+05
(PID.TID 0000.0001) %MON DYC_sd                       =   3.4042087138252E+04
(PID.TID 0000.0001) %MON DYF_max                      =   3.2369947500827E+05
(PID.TID 0000.0001) %MON DYF_min                      =   1.2020820513318E+05
(PID.TID 0000.0001) %MON DYF_mean                     =   2.8605437324820E+05
(PID.TID 0000.0001) %MON DYF_sd                       =   3.4050524252539E+04
(PID.TID 0000.0001) %MON DYG_max                      =   3.2375195872773E+05
(PID.TID 0000.0001) %MON DYG_min                      =   1.0098378008791E+05
(PID.TID 0000.0001) %MON DYG_mean                     =   2.8603818508931E+05
(PID.TID 0000.0001) %MON DYG_sd                       =   3.4140406908005E+04
(PID.TID 0000.0001) %MON DYU_max                      =   3.2380418162750E+05
(PID.TID 0000.0001) %MON DYU_min                      =   8.0152299824136E+04
(PID.TID 0000.0001) %MON DYU_mean                     =   2.8603970633619E+05
(PID.TID 0000.0001) %MON DYU_sd                       =   3.4145142117723E+04
(PID.TID 0000.0001) %MON RA_max                       =   1.0479260248419E+11
(PID.TID 0000.0001) %MON RA_min                       =   1.4019007022556E+10
(PID.TID 0000.0001) %MON RA_mean                      =   8.2992246709265E+10
(PID.TID 0000.0001) %MON RA_sd                        =   1.7509089299457E+10
(PID.TID 0000.0001) %MON RAW_max                      =   1.0480965274559E+11
(PID.TID 0000.0001) %MON RAW_min                      =   1.2166903467143E+10
(PID.TID 0000.0001) %MON RAW_mean                     =   8.2992246709235E+10
(PID.TID 0000.0001) %MON RAW_sd                       =   1.7481917919656E+10
(PID.TID 0000.0001) %MON RAS_max                      =   1.0480965274559E+11
(PID.TID 0000.0001) %MON RAS_min                      =   1.2166903467143E+10
(PID.TID 0000.0001) %MON RAS_mean                     =   8.2992246709235E+10
(PID.TID 0000.0001) %MON RAS_sd                       =   1.7481917919656E+10
(PID.TID 0000.0001) %MON RAZ_max                      =   1.0484349334619E+11
(PID.TID 0000.0001) %MON RAZ_min                      =   8.8317900612505E+09
(PID.TID 0000.0001) %MON RAZ_mean                     =   8.2992246709235E+10
(PID.TID 0000.0001) %MON RAZ_sd                       =   1.7482297311044E+10
(PID.TID 0000.0001) %MON AngleCS_max                  =   9.9999994756719E-01
(PID.TID 0000.0001) %MON AngleCS_min                  =  -9.9968286884824E-01
(PID.TID 0000.0001) %MON AngleCS_mean                 =   3.3078850405987E-01
(PID.TID 0000.0001) %MON AngleCS_sd                   =   6.2496317138039E-01
(PID.TID 0000.0001) %MON AngleSN_max                  =   9.9968286884824E-01
(PID.TID 0000.0001) %MON AngleSN_min                  =  -9.9999994756719E-01
(PID.TID 0000.0001) %MON AngleSN_mean                 =  -3.3078850405987E-01
(PID.TID 0000.0001) %MON AngleSN_sd                   =   6.2496317138039E-01
(PID.TID 0000.0001)  MDS_READ_FIELD: opening global file: bathy_Hmin50.bin
(PID.TID 0000.0001) // =======================================================
(PID.TID 0000.0001) // Field Model R_low (ini_masks_etc) at iteration          1
(PID.TID 0000.0001) // CMIN =         -5.200000000000000E+03
(PID.TID 0000.0001) // CMAX =         -5.000000000000000E+01
(PID.TID 0000.0001) // CINT =          1.907407407407407E+02
(PID.TID 0000.0001) // SYMBOLS (CMIN->CMAX): -abcdefghijklmnopqrstuvwxyz+
(PID.TID 0000.0001) //                  0.0: .
(PID.TID 0000.0001) // RANGE I (Lo:Hi:Step):(  -3: 196:   1)
(PID.TID 0000.0001) // RANGE J (Lo:Hi:Step):(  36:  -3:  -1)
(PID.TID 0000.0001) // RANGE K (Lo:Hi:Step):(   1:   1:   1)
(PID.TID 0000.0001) // =======================================================
(PID.TID 0000.0001) K =   1
(PID.TID 0000.0001) //                I=6       I=16      I=26      I=36      I=38      I=48      I=58      I=68      I=70      I=80      I=90      I=100     I=102     I=112     I=122     I=132     I=134     I=144     I=154     I=164     I=166     I=176     I=186     I=196
(PID.TID 0000.0001) // |--J--|321012345|789012345|789012345|789012345|901234567|901234567|901234567|901234567|123456789|123456789|123456789|123456789|345678901|345678901|345678901|345678901|567890123|567890123|567890123|567890123|789012345|789012345|789012345|789012345|
(PID.TID 0000.0001) //     36 cbbc-ddcbcdehkhhmn..++..................................................okn.skko--a-fc----bba-cp.............tfeecccbbdeecccbbdeddedcdcccdddcddffggghiggfffdeeffijlihjlica---a--cgffel.+edfgeedflcbahgfllcbahgfllfhdffhkfffca-aady...llnabdoa--a
(PID.TID 0000.0001) //     35 dcac--cbbeefjkfefw+..........zpu........................................kqnzrqqk--b-da----bbbbfu..............fdddccaadcddccaadcdddcbbbbcdddcccdffffghgffffddefflligfiljfba---aafddehy...pwvlhfffcbagfccfcbagfcceeffffjlkjgaa---bfvheeln-aesaaab
(PID.TID 0000.0001) //     34 d--ba-abcehjnldcclz+........spps.......................................vkqn+xnnncabbcbba--aabfu+..............hcbaaaaaccbaaaaaccdccbaaabbddddccdffffghfeeeeedeffjiffefilhfcaaaacgceei.......zomggfcaecbbgfcaecbbccddefilihecbaacbaajfega-aesfeed
(PID.TID 0000.0001) //     33 --abbbccceiomkfdbbc+.......+s..........................................xsrxzz+z.fdcddb-----adu+...............hcbaa--accbaa--accddba--bbbddddccdfffhhgfeeddcceddhfeddfgikhfffdfgccffw........zohhgebbaaahgebbaaaaaccdfhlhfefdcccaabjefbaaafoosso
(PID.TID 0000.0001) //     32 --bddefhhkqqlgfaakqz..v.+..+.........................................++..u+....zigfdba----adu+................kdcaaa-acccaaa-accdcb---bbbcdddddefffggfeeedcccccbccbbdcdfgghhiihcbeiw.........+ynjgebaaaajgebaaaa-aacccfikkhecccbbbaaabaadfklnqpp
(PID.TID 0000.0001) //     31 abbcffijnpnqneaaat..umrr+s.z.........................................+++++.ztsvdlifeb--dfdfu+................+lkdca--abcdca--abcccb---bbbbddddeffflhfeeeecbbbbaaba-abbacbcdceffbbfw+..........++ujfbaaa-ujfbaaa----aacffiljgfffcca--adfikkiihhhf
(PID.TID 0000.0001) //     30 --adgillkkkifcadcx.ymmqzqikvnnps.....................................+++++wmegt-jlifcacdlqx+++...............mligea---abgea---abbbb---abaaddddeedkmeddefdbbbaaaabc---b--aaaaabaabm..............+viba---+viba-------acdefinmlgiieb-chnnnmlmlgffc
(PID.TID 0000.0001) //     29 --cfiljigfjd--efdozy...+ximpnnuz......................................+++yqddhp-iljhcbbchz+......++.........+mmhffc----affc----aaba------acdddcbcineddgdbaaa----cdd--a------aa-bfz...............+qe---a.+qe---aa---aedeegknmlgiigcdfhpokkimlfdb
(PID.TID 0000.0001) //     28 -abgkhfcccea-bdei........t............................................++zwgfcfk-gknhccbbhwwy.....+++........+njfeed-----eed-----aa-------abddcabcnfddegcaaa-----hlf------------dk+................+ja---..+ja------bffdddehfd--bedaacfhpnligiihd
(PID.TID 0000.0001) //     27 -acghfbaaaa-achmy......................+.......+++....................++vnbbbclefkpkeeecflmqxy....++........+lhfeecc----eecc------------aaadcbabcfhddccba-------zqd-----------irw.................++e---..++e-----mhmijddda--------ahhfiokhedegg
(PID.TID 0000.0001) //     26 -adhfca-----bfiv.......................+.......++sy...................+tq-fdbblcjknqiheddefhiksz++++........zkhfdccb----dccb------------aabdcaaaacfddbca-------a+xfa-abb-----vvv...................+wa--...+wa---mlmkijhc----------cjjffiheb-aad
(PID.TID 0000.0001) //     25 -achfa------ch+..................w.......w.......njo+................+x-----bcgidiqqojfefiiiijmy.++.........zkhfdbaa----dbaa-------daa---acccaaaacccca--------ac.+udaabbb----tei...................++qde...++qdeqnghiljcaaaaidaa----beedeeca--bb
(PID.TID 0000.0001) //     24 aaeifa--acbcei...................w.......w.......likn+.....++.....++znpa----bbdi-fnlmnjhinlksssw............qhfeca------ca--------addc--aeffaaaaaaccb-a----a--bd.++udbbaba---ven....................++xy....++xywnfgllcbbabegkecba----ddddcaacdc
(PID.TID 0000.0001) //     23 abfida-aabchjk...................zz......zz.....nhhijz....tqq.....+ujgzgd---abci-cegklkkknols..xuu..........zgfdba------ba--------bcd---affaaadffabbb-----aa-bcc.+.+ufb-----l.gx...........s.........++z.....++zzkfilfccccoz..ulkcd---bccnfddddd
(PID.TID 0000.0001) //     22 -afhfaa---bfgi....................zz..rn..zz..rnjffggm...nlmn+....+sffzya--aabcieaaffdfhimrmp...yuu.++.......zudba------ba--------adc---dda-adffe-aa--------aaac....+ufc-baaqvhh..........dcfeeh......++......++zggqvifefhz......zobbaccfwuffeee
(PID.TID 0000.0001) //     21 babcgca----abe.....................ysstl...ysstlgeeeeoz..ijklt+....lfjzzf---adfcfdaadcehllotq....yy+++zzs.....+zcba-----cba-------cdd--aaa----df------------aaac.....+upjdcy.vohq.......+idcdfeeefwz....efwz....+hhn.vklox.........gdccfjwrigffh
(PID.TID 0000.0001) //     20 fbbbcgfcaa-aae+.......................lc......lcgfdddhq.+hiilnz++.+oquxyz--adgkfdcaabcfmtooyxz......+yuiiy....++gb------gb--------ddcca-a-----acbaa------bbaaaab........ywxy.lulo.lv...kcdgddffefffilyx+fffilyx+fffk.+xyyy.........mgeimvskjklll
(PID.TID 0000.0001) //     19 zmfeccdghfeegcbt......................aa......aafifccgnrzgghjry.+++sr+lq.--edfkkoxtkblwnnsp.vv......skhggt...+++t-------t---------bdaf---------edd-------adlaaaa+..........vnhzy.tllqiedccdhggfggffiiggfgffiiggfcbdgy..yz..........xigqophijkkii
(PID.TID 0000.0001) //     18 ..wifedfkhfegbbcivlqfoz..............jaa.....jaacfihggokeeffgt..++++..hhlfdeddkez..qcz+.zwxtsttz..ysrkhot++++++zig------ig--------b--f---------egqqqaa----frb---+........+kkrhw.vqmlnieddcdehgggffgigedbffgigedbaaceiy.............zilrddefikkhh
(PID.TID 0000.0001) //     17 ..+wfeefikhgcbbccaaacgn.............icaa....icaaccfihfoedddeedy..++...nnqwgfeekeyy.z++..+zsjjllllljllpjos+++.+zhhi-----ehi-----e-----ea--------foqqoqqo--hlwgea-.........+nk+..xiioonhfefddegihhghigfdbaghigfdbaaabdgx..............nheddefiklhg
(PID.TID 0000.0001) //     16 ....wiheddeccdfhfbabdfl............jdbad...jdbaddddgifkccccdccd+.++..++ynvz.tkkq.mu....++zyslllllkhggkmpy++...ihhi-----ehi-----ea---feb-----a-acnoohfghknvmwnuca..........qhu..hhhkojgffgeefghihhiieedbahiieedbaaabcdy..............ygddeghiljgf
(PID.TID 0000.0001) //     15 ......ylea--acfihebcbbes..........sfcbbn..sfcbbngfffigcaaabdbcac+.+++++zgmpx...y.mm....++..zslwz.yhhhhnz+++...rhgc----abgc----ab----ige----acaaalllkddfiy..yswxb..........thk.xgghiligfghfefhhhhiiheedcdiiheedcdbbabdmz.............zfdeghikkifd
(PID.TID 0000.0001) //     14 ........c---acgkhdcc--di..........ofddch..ofddchohffikaaaaabaaa-aw+.+ysnggox++...qrv..........yzzzzrjil+++....qhgd-----agd-----a-----i---cccdeabkklldinqssy..xxv...........+y.uhghikihgfghefgihhhgeeeeedhgeeeeeddbaadhw.............nedeghjjhfed
(PID.TID 0000.0001) //     13 .......+b----cfkhec---afz.........nhfdff..nhfdffholghkaaaaaba-a---flkkuswyy++++y+zr...........zzzzz++ry++......yd-------d--------------aeecdeidfkkqnqlmqquukqqmf..............iihiijjhfefgefhjihiffgggffiffgggffecaabelx...........zjecehijhfecc
(PID.TID 0000.0001) //     12 .......ec----chjhec---ag..........skiqdd..skiqddeiiiifaaabae--a---dd--iu+++.+++sxq++..........+z+++++.+++....++.s-------s------------a-ceccdejhlllkqlkklssiccdee.............wjkkkjjjigeefffgjiiighiiihhighiiihhhdaabdffghtxx......mfccehjiffdb-
(PID.TID 0000.0001) //     11 ......pdca--achlheba--ai..........nkn.fd..nkn.fdemijidaaaabi-------a--q+....++.ziis...........+++++..........+yyza----b-za----b-----a--ccccddkhieekkossssfbbbbcd............njjijhhihijhgggggjjjjijkkkkjjijkkkkjjhcaacddeegpy.....xfdccdhjgfdda-
(PID.TID 0000.0001) //     10 ......wfdb--achlhea---an.........uos..dc.uos..dcemikkfdcaabi-------equ+.........mk...........................zyvuq----ccuq----cc----a---dcfhkopqjeissrnpfbbcccde..........zslihhigghgijjihhhhkllkkkkkkjkkkkkkkjkkkedccdeeeeipz..zwhccbcdhgfddcam
(PID.TID 0000.0001) //      9 ......vgec---bfikca--cjl+.......+nnv.+cc+nnv.+ccffhkkiddaadha-----as++..........pvz++........................zxuuk------uk------a---a----djmqrrnlllsoiddcccccdjf.........+zjijhfgfggffhjkkkiillljihhghgijihhghgihighdeeffgghimnnjgecbbcdgfeccbas
(PID.TID 0000.0001) //      8 .....zleca---afjfca--hdfz.......vkky.jcevkky.jceddefijffdddhb--a-afv............nn..ss.........................+yku-----yku--------------ejnpqqnninnritqdccchkmf+.......wihgghgeffffeefhijkjkljiigeeffefigeeffefffhjhhikkklljklmhffeeeggfdcbaay.
(PID.TID 0000.0001) //      7 ...+zohec--abcfkhecbchbdx.......qiht.faaqiht.faaaabdgijgfededcdcb-f+............nn...pz.........................+zu-----+zu--------------edefqgqddsz+......+yuddmm+....tiggfggfeeeefeeefiiiijkiihhedddddhheddddddddjjllliijhfkmmkkjjhijgdcba--q.
(PID.TID 0000.0001) //      6 ..+yomfddcaabefkifdchaadt......uqdeisc--qdeisc----dfefgifffkklldc--v............up...pp.........................v.x-----v.x---------a----fbbpqgzenx+........zdbcmllkhhfffffffgfeeeeeeeefhhhhijihhffddcbbhffddcbbbbdhhiihedddb-cfhhhjjjieca----+.
(PID.TID 0000.0001) //      5 ..+nhgffkghccfhkhffgdaackz....uoibcimlaaibcimlaaacfbddfjjhijeehf-a-c............zs...su.........................qk.yi---qk.yi-------gha-fjddqs+xkrz.........q-bchikdccdeeeeeeedddedddddgghhhhjhhgffcbbaagffcbbaaaaddfegecca----dfeefhfgdb-----+.
(PID.TID 0000.0001) //      4 .+ujhgfllfhdffhkfffca-aady...llnabdopfcbabdopfcbdgdbcdehlihgfddc--ms............................................okn.zd--okn.zd---eciiiicfkeeqy.ysz..........n-aafgdcbbdeddedcdcccdddcddffggghiggfffdbaa-fffdbaa---acdcccba--abvfedeffdcca----b+.
(PID.TID 0000.0001) //      3 +vjggfcceeffffjlkjgaa---bfvheeln-aesphfd-aesphfdhgabddeflihhgfecbaaayq+++++.....................................kqnz.vtpkqnz.vtpkllgdccfkkkkk..++..........+g---fecaaadcdddcbbbbcdddcccdffffghgffffdcaa-fffdcaa----abcaaaa-acxxmecdjmdbba----r+.
(PID.TID 0000.0001) //      2 qifeecbbccddefilihecbaacbaajfega-aesqhff-aesqhffiea-cdeflkkljifeddcba---bry+...................................vkqn+.sghkqn+.sghfcbcbbbdgfdek.++++.........+l---caaaaaccdccbaaabbddddccdffffghfeeeeecba-eeeecba------baaaa-euwxqdbcdkud-----sy+.
(PID.TID 0000.0001) //      1 ebbbbaaaaaccdfhlhfefdcccaabjefbaaafonhglaafonhglid--adfgkkkklkhffddca-----s++++................................xsrxz.tedsrxz.tedcbbbbaaadddet.++++.........+l------a-accddba--bbbddddccdfffhhgfeeddccba-eddccba-------aaaabgns.qcbcchyzqngll++..
(PID.TID 0000.0001) //      0 -aaaaaaa-aacccfikkhecccbbbaaabaadfkllilmdfkllilmgebaadfijjiiikjhffdcba-----lllgn.............................++..u+..zmd.u+..zmdfbd---a-aeef.xx+..........+++s-------accdcb---bbbcdddddefffggfeeedcccbbaedcccbba----aa--alrwwy.kcbccc+...++++...
(PID.TID 0000.0001) //     -1 --aaaaa----aacffiljgfffcca--adfikkiikimikkiikimiiheccfurkiffhijjigfecb-----l----.............................+++++.z+.wq++.z+.wqgbf-------dgzpoy+........+ys+yrb--aa-abcccb---bbbbddddeffflhfeeeecbbcbbaecbbcbbaa----a--bdflm.yuibbcc.......+...
(PID.TID 0000.0001) //     -2 --aaa-------acdefinmlgiieb-chnnnmlmlfklkmlmlfklklkhednwwsheeghhijjgfdca----g---a.............................+++++wmu++y++wmu++ywn--------fwvmgy+........+r-.+++-abc--abbbb---abaaddddeedkmeddefdbbbdcbadbbbdcbaa-------ba-hv.susfbcc.......+...
(PID.TID 0000.0001) //     -3 a--a---aa---aedeegknmlgiigcdfhpokkimdkmkkkimdkmknoiedcfjvpddegghhhhgfdcbaa-n---a..............................+++yqd.++++yqd.+++zvq--dafz.lqnggw+........+b-....abcc---aaba------acdddcbcineddgdbaaaeedbbaaaeedbaa----------nysqssfcd...........
(PID.TID 0000.0001) // =======================================================
(PID.TID 0000.0001) // END OF FIELD                                          =
(PID.TID 0000.0001) // =======================================================
(PID.TID 0000.0001) 
(PID.TID 0000.0001) // =======================================================
(PID.TID 0000.0001) // Field Model Ro_surf (ini_masks_etc) at iteration          1
(PID.TID 0000.0001) // CMIN =         -7.105427357601002E-15
(PID.TID 0000.0001) // CMAX =         -7.105427357601002E-15
(PID.TID 0000.0001) // CINT =          0.000000000000000E+00
(PID.TID 0000.0001) // SYMBOLS (CMIN->CMAX): -abcdefghijklmnopqrstuvwxyz+
(PID.TID 0000.0001) //                  0.0: .
(PID.TID 0000.0001) // RANGE I (Lo:Hi:Step):(  -3: 196:   1)
(PID.TID 0000.0001) // RANGE J (Lo:Hi:Step):(  36:  -3:  -1)
(PID.TID 0000.0001) // RANGE K (Lo:Hi:Step):(   1:   1:   1)
(PID.TID 0000.0001) // =======================================================
(PID.TID 0000.0001) // =======================================================
(PID.TID 0000.0001) // END OF FIELD                                          =
(PID.TID 0000.0001) // =======================================================
(PID.TID 0000.0001) 
(PID.TID 0000.0001) // =======================================================
(PID.TID 0000.0001) // Field hFacC at iteration          1
(PID.TID 0000.0001) // CMIN =          1.000000000000000E+00
(PID.TID 0000.0001) // CMAX =          1.000000000000000E+00
(PID.TID 0000.0001) // CINT =          0.000000000000000E+00
(PID.TID 0000.0001) // SYMBOLS (CMIN->CMAX): -abcdefghijklmnopqrstuvwxyz+
(PID.TID 0000.0001) //                  0.0: .
(PID.TID 0000.0001) // RANGE I (Lo:Hi:Step):(  -3: 196:   1)
(PID.TID 0000.0001) // RANGE J (Lo:Hi:Step):(  36:  -3:  -1)
(PID.TID 0000.0001) // RANGE K (Lo:Hi:Step):(   1:   1:   1)
(PID.TID 0000.0001) // =======================================================
(PID.TID 0000.0001) // =======================================================
(PID.TID 0000.0001) // END OF FIELD                                          =
(PID.TID 0000.0001) // =======================================================
(PID.TID 0000.0001) 
(PID.TID 0000.0001) // =======================================================
(PID.TID 0000.0001) // Field hFacW at iteration          1
(PID.TID 0000.0001) // CMIN =          1.000000000000000E+00
(PID.TID 0000.0001) // CMAX =          1.000000000000000E+00
(PID.TID 0000.0001) // CINT =          0.000000000000000E+00
(PID.TID 0000.0001) // SYMBOLS (CMIN->CMAX): -abcdefghijklmnopqrstuvwxyz+
(PID.TID 0000.0001) //                  0.0: .
(PID.TID 0000.0001) // RANGE I (Lo:Hi:Step):(  -3: 196:   1)
(PID.TID 0000.0001) // RANGE J (Lo:Hi:Step):(  36:  -3:  -1)
(PID.TID 0000.0001) // RANGE K (Lo:Hi:Step):(   1:   1:   1)
(PID.TID 0000.0001) // =======================================================
(PID.TID 0000.0001) // =======================================================
(PID.TID 0000.0001) // END OF FIELD                                          =
(PID.TID 0000.0001) // =======================================================
(PID.TID 0000.0001) 
(PID.TID 0000.0001) // =======================================================
(PID.TID 0000.0001) // Field hFacS at iteration          1
(PID.TID 0000.0001) // CMIN =          1.000000000000000E+00
(PID.TID 0000.0001) // CMAX =          1.000000000000000E+00
(PID.TID 0000.0001) // CINT =          0.000000000000000E+00
(PID.TID 0000.0001) // SYMBOLS (CMIN->CMAX): -abcdefghijklmnopqrstuvwxyz+
(PID.TID 0000.0001) //                  0.0: .
(PID.TID 0000.0001) // RANGE I (Lo:Hi:Step):(  -3: 196:   1)
(PID.TID 0000.0001) // RANGE J (Lo:Hi:Step):(  36:  -3:  -1)
(PID.TID 0000.0001) // RANGE K (Lo:Hi:Step):(   1:   1:   1)
(PID.TID 0000.0001) // =======================================================
(PID.TID 0000.0001) // =======================================================
(PID.TID 0000.0001) // END OF FIELD                                          =
(PID.TID 0000.0001) // =======================================================
(PID.TID 0000.0001) 
(PID.TID 0000.0001) 
(PID.TID 0000.0001) // ===================================
(PID.TID 0000.0001) // GAD parameters :
(PID.TID 0000.0001) // ===================================
(PID.TID 0000.0001) tempAdvScheme =   /* Temp. Horiz.Advection scheme selector */
(PID.TID 0000.0001)                       2
(PID.TID 0000.0001)     ;
(PID.TID 0000.0001) tempVertAdvScheme =   /* Temp. Vert. Advection scheme selector */
(PID.TID 0000.0001)                       2
(PID.TID 0000.0001)     ;
(PID.TID 0000.0001) tempMultiDimAdvec =   /* use Muti-Dim Advec method for Temp */
(PID.TID 0000.0001)                   F
(PID.TID 0000.0001)     ;
(PID.TID 0000.0001) tempSOM_Advection = /* use 2nd Order Moment Advection for Temp */
(PID.TID 0000.0001)                   F
(PID.TID 0000.0001)     ;
(PID.TID 0000.0001) AdamsBashforthGt = /* apply Adams-Bashforth extrapolation on Gt */
(PID.TID 0000.0001)                   T
(PID.TID 0000.0001)     ;
(PID.TID 0000.0001) AdamsBashforth_T = /* apply Adams-Bashforth extrapolation on Temp */
(PID.TID 0000.0001)                   F
(PID.TID 0000.0001)     ;
(PID.TID 0000.0001) saltAdvScheme =   /* Salt. Horiz.advection scheme selector */
(PID.TID 0000.0001)                       2
(PID.TID 0000.0001)     ;
(PID.TID 0000.0001) saltVertAdvScheme =   /* Salt. Vert. Advection scheme selector */
(PID.TID 0000.0001)                       2
(PID.TID 0000.0001)     ;
(PID.TID 0000.0001) saltMultiDimAdvec =   /* use Muti-Dim Advec method for Salt */
(PID.TID 0000.0001)                   F
(PID.TID 0000.0001)     ;
(PID.TID 0000.0001) saltSOM_Advection = /* use 2nd Order Moment Advection for Salt */
(PID.TID 0000.0001)                   F
(PID.TID 0000.0001)     ;
(PID.TID 0000.0001) AdamsBashforthGs = /* apply Adams-Bashforth extrapolation on Gs */
(PID.TID 0000.0001)                   T
(PID.TID 0000.0001)     ;
(PID.TID 0000.0001) AdamsBashforth_S = /* apply Adams-Bashforth extrapolation on Salt */
(PID.TID 0000.0001)                   F
(PID.TID 0000.0001)     ;
(PID.TID 0000.0001) // ===================================
(PID.TID 0000.0001) %MON fCori_max                    =   1.4574827780704E-04
(PID.TID 0000.0001) %MON fCori_min                    =  -1.4574827780704E-04
(PID.TID 0000.0001) %MON fCori_mean                   =   0.0000000000000E+00
(PID.TID 0000.0001) %MON fCori_sd                     =   8.4202189509968E-05
(PID.TID 0000.0001) %MON fCoriG_max                   =   1.4584247033981E-04
(PID.TID 0000.0001) %MON fCoriG_min                   =  -1.4584247033981E-04
(PID.TID 0000.0001) %MON fCoriG_mean                  =   2.2587545260115E-21
(PID.TID 0000.0001) %MON fCoriG_sd                    =   8.4202189509968E-05
(PID.TID 0000.0001) %MON fCoriCos_max                 =   1.4580166994612E-04
(PID.TID 0000.0001) %MON fCoriCos_min                 =   5.2407700865903E-06
(PID.TID 0000.0001) %MON fCoriCos_mean                =   1.1514045869113E-04
(PID.TID 0000.0001) %MON fCoriCos_sd                  =   3.0375849106513E-05
(PID.TID 0000.0001) INI_CG2D: CG2D normalisation factor =  1.9156564154949553E-04
(PID.TID 0000.0001) INI_CG2D: cg2dTolerance = 1.936338786725098E-07 (Area=3.6388673751E+14)
(PID.TID 0000.0001) 
(PID.TID 0000.0001) INI_CG3D: CG3D normalisation factor =  5.7255949921703569E-10
(PID.TID 0000.0001) 
(PID.TID 0000.0001) // =======================================================
(PID.TID 0000.0001) // Model configuration
(PID.TID 0000.0001) // =======================================================
(PID.TID 0000.0001) //
(PID.TID 0000.0001) // "Physical" paramters ( PARM01 in namelist )
(PID.TID 0000.0001) //
(PID.TID 0000.0001) buoyancyRelation = /* Type of relation to get Buoyancy */
(PID.TID 0000.0001)               'OCEANIC'
(PID.TID 0000.0001)     ;
(PID.TID 0000.0001) fluidIsAir  =  /* fluid major constituent is Air */
(PID.TID 0000.0001)                   F
(PID.TID 0000.0001)     ;
(PID.TID 0000.0001) fluidIsWater=  /* fluid major constituent is Water */
(PID.TID 0000.0001)                   T
(PID.TID 0000.0001)     ;
(PID.TID 0000.0001) usingPCoords =  /* use p (or p*) vertical coordinate */
(PID.TID 0000.0001)                   F
(PID.TID 0000.0001)     ;
(PID.TID 0000.0001) usingZCoords =  /* use z (or z*) vertical coordinate */
(PID.TID 0000.0001)                   T
(PID.TID 0000.0001)     ;
(PID.TID 0000.0001) tRef =   /* Reference temperature profile ( oC or K ) */
(PID.TID 0000.0001)    15 @  2.000000000000000E+01              /* K =  1: 15 */
(PID.TID 0000.0001)     ;
(PID.TID 0000.0001) sRef =   /* Reference salinity profile ( psu ) */
(PID.TID 0000.0001)    15 @  3.500000000000000E+01              /* K =  1: 15 */
(PID.TID 0000.0001)     ;
(PID.TID 0000.0001) viscAh =   /* Lateral eddy viscosity ( m^2/s ) */
(PID.TID 0000.0001)                 1.000000000000000E+05
(PID.TID 0000.0001)     ;
(PID.TID 0000.0001) viscAhMax =   /* Maximum lateral eddy viscosity ( m^2/s ) */
(PID.TID 0000.0001)                 1.000000000000000E+21
(PID.TID 0000.0001)     ;
(PID.TID 0000.0001) viscAhGrid =   /* Grid dependent lateral eddy viscosity ( non-dim. ) */
(PID.TID 0000.0001)                 0.000000000000000E+00
(PID.TID 0000.0001)     ;
(PID.TID 0000.0001) useFullLeith =   /* Use Full Form of Leith Viscosity on/off flag*/
(PID.TID 0000.0001)                   F
(PID.TID 0000.0001)     ;
(PID.TID 0000.0001) useStrainTensionVisc =   /* Use StrainTension Form of Viscous Operator on/off flag*/
(PID.TID 0000.0001)                   F
(PID.TID 0000.0001)     ;
(PID.TID 0000.0001) useAreaViscLength =   /* Use area for visc length instead of geom. mean*/
(PID.TID 0000.0001)                   F
(PID.TID 0000.0001)     ;
(PID.TID 0000.0001) viscC2leith = /* Leith harmonic visc. factor (on grad(vort),non-dim.) */
(PID.TID 0000.0001)                 0.000000000000000E+00
(PID.TID 0000.0001)     ;
(PID.TID 0000.0001) viscC2leithD = /* Leith harmonic viscosity factor (on grad(div),non-dim.) */
(PID.TID 0000.0001)                 0.000000000000000E+00
(PID.TID 0000.0001)     ;
(PID.TID 0000.0001) viscC2smag =   /* Smagorinsky harmonic viscosity factor (non-dim.) */
(PID.TID 0000.0001)                 0.000000000000000E+00
(PID.TID 0000.0001)     ;
(PID.TID 0000.0001) viscA4 =   /* Lateral biharmonic viscosity ( m^4/s ) */
(PID.TID 0000.0001)                 3.000000000000000E+14
(PID.TID 0000.0001)     ;
(PID.TID 0000.0001) viscA4Max =   /* Maximum biharmonic viscosity ( m^2/s ) */
(PID.TID 0000.0001)                 1.000000000000000E+21
(PID.TID 0000.0001)     ;
(PID.TID 0000.0001) viscA4Grid =   /* Grid dependent biharmonic viscosity ( non-dim. ) */
(PID.TID 0000.0001)                 0.000000000000000E+00
(PID.TID 0000.0001)     ;
(PID.TID 0000.0001) viscC4leith = /* Leith biharm viscosity factor (on grad(vort), non-dim.) */
(PID.TID 0000.0001)                 0.000000000000000E+00
(PID.TID 0000.0001)     ;
(PID.TID 0000.0001) viscC4leithD = /* Leith biharm viscosity factor (on grad(div), non-dim.) */
(PID.TID 0000.0001)                 0.000000000000000E+00
(PID.TID 0000.0001)     ;
(PID.TID 0000.0001) viscC4Smag = /* Smagorinsky biharm viscosity factor (non-dim) */
(PID.TID 0000.0001)                 0.000000000000000E+00
(PID.TID 0000.0001)     ;
(PID.TID 0000.0001) no_slip_sides =  /* Viscous BCs: No-slip sides */
(PID.TID 0000.0001)                   T
(PID.TID 0000.0001)     ;
(PID.TID 0000.0001) sideDragFactor = /* side-drag scaling factor (non-dim) */
(PID.TID 0000.0001)                 2.000000000000000E+00
(PID.TID 0000.0001)     ;
(PID.TID 0000.0001) viscAr =   /* Vertical eddy viscosity ( m^2/s ) */
(PID.TID 0000.0001)                 1.000000000000000E-03
(PID.TID 0000.0001)     ;
(PID.TID 0000.0001) no_slip_bottom =  /* Viscous BCs: No-slip bottom */
(PID.TID 0000.0001)                   T
(PID.TID 0000.0001)     ;
(PID.TID 0000.0001) bottomDragLinear = /* linear bottom-drag coefficient ( m/s ) */
(PID.TID 0000.0001)                 0.000000000000000E+00
(PID.TID 0000.0001)     ;
(PID.TID 0000.0001) bottomDragQuadratic = /* quadratic bottom-drag coefficient (-) */
(PID.TID 0000.0001)                 0.000000000000000E+00
(PID.TID 0000.0001)     ;
(PID.TID 0000.0001) diffKhT =   /* Laplacian diffusion of heat laterally ( m^2/s ) */
(PID.TID 0000.0001)                 0.000000000000000E+00
(PID.TID 0000.0001)     ;
(PID.TID 0000.0001) diffK4T =   /* Biharmonic diffusion of heat laterally ( m^4/s ) */
(PID.TID 0000.0001)                 0.000000000000000E+00
(PID.TID 0000.0001)     ;
(PID.TID 0000.0001) diffKhS =   /* Laplacian diffusion of salt laterally ( m^2/s ) */
(PID.TID 0000.0001)                 0.000000000000000E+00
(PID.TID 0000.0001)     ;
(PID.TID 0000.0001) diffK4S =   /* Biharmonic diffusion of salt laterally ( m^4/s ) */
(PID.TID 0000.0001)                 0.000000000000000E+00
(PID.TID 0000.0001)     ;
(PID.TID 0000.0001) diffKrNrT = /* vertical profile of vertical diffusion of Temp ( m^2/s )*/
(PID.TID 0000.0001)    15 @  3.000000000000000E-05              /* K =  1: 15 */
(PID.TID 0000.0001)     ;
(PID.TID 0000.0001) diffKrNrS = /* vertical profile of vertical diffusion of Salt ( m^2/s )*/
(PID.TID 0000.0001)    15 @  3.000000000000000E-05              /* K =  1: 15 */
(PID.TID 0000.0001)     ;
(PID.TID 0000.0001) diffKrBL79surf = /* Surface diffusion for Bryan and Lewis 79 ( m^2/s ) */
(PID.TID 0000.0001)                 0.000000000000000E+00
(PID.TID 0000.0001)     ;
(PID.TID 0000.0001) diffKrBL79deep = /* Deep diffusion for Bryan and Lewis 1979 ( m^2/s ) */
(PID.TID 0000.0001)                 0.000000000000000E+00
(PID.TID 0000.0001)     ;
(PID.TID 0000.0001) diffKrBL79scl = /* Depth scale for Bryan and Lewis 1979 ( m ) */
(PID.TID 0000.0001)                 2.000000000000000E+02
(PID.TID 0000.0001)     ;
(PID.TID 0000.0001) diffKrBL79Ho = /* Turning depth for Bryan and Lewis 1979 ( m ) */
(PID.TID 0000.0001)                -2.000000000000000E+03
(PID.TID 0000.0001)     ;
(PID.TID 0000.0001) ivdc_kappa = /* Implicit Vertical Diffusivity for Convection ( m^2/s ) */
(PID.TID 0000.0001)                 1.000000000000000E+01
(PID.TID 0000.0001)     ;
(PID.TID 0000.0001) hMixCriteria=  /* Criteria for mixed-layer diagnostic */
(PID.TID 0000.0001)                -8.000000000000000E-01
(PID.TID 0000.0001)     ;
(PID.TID 0000.0001) dRhoSmall=  /* Parameter for mixed-layer diagnostic */
(PID.TID 0000.0001)                 1.000000000000000E-06
(PID.TID 0000.0001)     ;
(PID.TID 0000.0001) hMixSmooth=  /* Smoothing parameter for mixed-layer diagnostic */
(PID.TID 0000.0001)                 0.000000000000000E+00
(PID.TID 0000.0001)     ;
(PID.TID 0000.0001) eosType =  /* Type of Equation of State */
(PID.TID 0000.0001)               'JMD95Z'
(PID.TID 0000.0001)     ;
(PID.TID 0000.0001) tAlpha =   /* Linear EOS thermal expansion coefficient ( 1/oC ) */
(PID.TID 0000.0001)                 1.234567000000000E+05
(PID.TID 0000.0001)     ;
(PID.TID 0000.0001) sBeta =   /* Linear EOS haline contraction coefficient ( 1/psu ) */
(PID.TID 0000.0001)                 1.234567000000000E+05
(PID.TID 0000.0001)     ;
(PID.TID 0000.0001) rhonil =   /* Reference density ( kg/m^3 ) */
(PID.TID 0000.0001)                 1.035000000000000E+03
(PID.TID 0000.0001)     ;
(PID.TID 0000.0001) rhoConst =   /* Reference density ( kg/m^3 ) */
(PID.TID 0000.0001)                 1.035000000000000E+03
(PID.TID 0000.0001)     ;
(PID.TID 0000.0001) rhoFacC = /* normalized Reference density @ cell-Center (-) */
(PID.TID 0000.0001)    15 @  1.000000000000000E+00              /* K =  1: 15 */
(PID.TID 0000.0001)     ;
(PID.TID 0000.0001) rhoFacF = /* normalized Reference density @ W-Interface (-) */
(PID.TID 0000.0001)    16 @  1.000000000000000E+00              /* K =  1: 16 */
(PID.TID 0000.0001)     ;
(PID.TID 0000.0001) rhoConstFresh =   /* Reference density ( kg/m^3 ) */
(PID.TID 0000.0001)                 1.000000000000000E+03
(PID.TID 0000.0001)     ;
(PID.TID 0000.0001) gravity =   /* Gravitational acceleration ( m/s^2 ) */
(PID.TID 0000.0001)                 9.810000000000000E+00
(PID.TID 0000.0001)     ;
(PID.TID 0000.0001) gBaro =   /* Barotropic gravity ( m/s^2 ) */
(PID.TID 0000.0001)                 9.810000000000000E+00
(PID.TID 0000.0001)     ;
(PID.TID 0000.0001) rotationPeriod =   /* Rotation Period ( s ) */
(PID.TID 0000.0001)                 8.616400000000000E+04
(PID.TID 0000.0001)     ;
(PID.TID 0000.0001) omega =   /* Angular velocity ( rad/s ) */
(PID.TID 0000.0001)                 7.292123516990375E-05
(PID.TID 0000.0001)     ;
(PID.TID 0000.0001) f0 =   /* Reference coriolis parameter ( 1/s ) */
(PID.TID 0000.0001)                 1.000000000000000E-04
(PID.TID 0000.0001)     ;
(PID.TID 0000.0001) beta =   /* Beta ( 1/(m.s) ) */
(PID.TID 0000.0001)                 9.999999999999999E-12
(PID.TID 0000.0001)     ;
(PID.TID 0000.0001) freeSurfFac =   /* Implicit free surface factor */
(PID.TID 0000.0001)                 1.000000000000000E+00
(PID.TID 0000.0001)     ;
(PID.TID 0000.0001) implicitFreeSurface =   /* Implicit free surface on/off flag */
(PID.TID 0000.0001)                   T
(PID.TID 0000.0001)     ;
(PID.TID 0000.0001) rigidLid =   /* Rigid lid on/off flag */
(PID.TID 0000.0001)                   F
(PID.TID 0000.0001)     ;
(PID.TID 0000.0001) implicSurfPress =   /* Surface Pressure implicit factor (0-1)*/
(PID.TID 0000.0001)                 1.000000000000000E+00
(PID.TID 0000.0001)     ;
(PID.TID 0000.0001) implicDiv2Dflow =   /* Barot. Flow Div. implicit factor (0-1)*/
(PID.TID 0000.0001)                 1.000000000000000E+00
(PID.TID 0000.0001)     ;
(PID.TID 0000.0001) exactConserv =   /* Exact Volume Conservation on/off flag*/
(PID.TID 0000.0001)                   T
(PID.TID 0000.0001)     ;
(PID.TID 0000.0001) linFSConserveTr =   /* Tracer correction for Lin Free Surface on/off flag*/
(PID.TID 0000.0001)                   F
(PID.TID 0000.0001)     ;
(PID.TID 0000.0001) uniformLin_PhiSurf =   /* use uniform Bo_surf on/off flag*/
(PID.TID 0000.0001)                   T
(PID.TID 0000.0001)     ;
(PID.TID 0000.0001) nonlinFreeSurf =   /* Non-linear Free Surf. options (-1,0,1,2,3)*/
(PID.TID 0000.0001)                       0
(PID.TID 0000.0001)     ;
(PID.TID 0000.0001)      -1,0= Off ; 1,2,3= On, 2=+rescale gU,gV, 3=+update cg2d solv.
(PID.TID 0000.0001) hFacInf =   /* lower threshold for hFac (nonlinFreeSurf only)*/
(PID.TID 0000.0001)                 2.000000000000000E-01
(PID.TID 0000.0001)     ;
(PID.TID 0000.0001) hFacSup =   /* upper threshold for hFac (nonlinFreeSurf only)*/
(PID.TID 0000.0001)                 2.000000000000000E+00
(PID.TID 0000.0001)     ;
(PID.TID 0000.0001) select_rStar = /* r* Vertical coord. options (=0 r coord.; > 0 uses r*) */
(PID.TID 0000.0001)                       0
(PID.TID 0000.0001)     ;
(PID.TID 0000.0001) selectAddFluid = /* option for mass source/sink of fluid (=0: off) */
(PID.TID 0000.0001)                       0
(PID.TID 0000.0001)     ;
(PID.TID 0000.0001) useRealFreshWaterFlux = /* Real Fresh Water Flux on/off flag*/
(PID.TID 0000.0001)                   T
(PID.TID 0000.0001)     ;
(PID.TID 0000.0001) temp_EvPrRn = /* Temp. of Evap/Prec/R (UNSET=use local T)(oC)*/
(PID.TID 0000.0001)                 1.234567000000000E+05
(PID.TID 0000.0001)     ;
(PID.TID 0000.0001) salt_EvPrRn = /* Salin. of Evap/Prec/R (UNSET=use local S)(ppt)*/
(PID.TID 0000.0001)                 0.000000000000000E+00
(PID.TID 0000.0001)     ;
(PID.TID 0000.0001) convertFW2Salt = /* convert F.W. Flux to Salt Flux (-1=use local S)(ppt)*/
(PID.TID 0000.0001)                -1.000000000000000E+00
(PID.TID 0000.0001)     ;
(PID.TID 0000.0001) use3Dsolver = /* use 3-D pressure solver on/off flag */
(PID.TID 0000.0001)                   T
(PID.TID 0000.0001)     ;
(PID.TID 0000.0001) nonHydrostatic =  /* Non-Hydrostatic on/off flag */
(PID.TID 0000.0001)                   T
(PID.TID 0000.0001)     ;
(PID.TID 0000.0001) nh_Am2 = /* Non-Hydrostatic terms scaling factor */
(PID.TID 0000.0001)                 1.000000000000000E+00
(PID.TID 0000.0001)     ;
(PID.TID 0000.0001) quasiHydrostatic = /* Quasi-Hydrostatic on/off flag */
(PID.TID 0000.0001)                   F
(PID.TID 0000.0001)     ;
(PID.TID 0000.0001) momStepping =  /* Momentum equation on/off flag */
(PID.TID 0000.0001)                   T
(PID.TID 0000.0001)     ;
(PID.TID 0000.0001) vectorInvariantMomentum= /* Vector-Invariant Momentum on/off */
(PID.TID 0000.0001)                   T
(PID.TID 0000.0001)     ;
(PID.TID 0000.0001) momAdvection =  /* Momentum advection on/off flag */
(PID.TID 0000.0001)                   T
(PID.TID 0000.0001)     ;
(PID.TID 0000.0001) momViscosity =  /* Momentum viscosity on/off flag */
(PID.TID 0000.0001)                   T
(PID.TID 0000.0001)     ;
(PID.TID 0000.0001) momImplVertAdv =/* Momentum implicit vert. advection on/off*/
(PID.TID 0000.0001)                   F
(PID.TID 0000.0001)     ;
(PID.TID 0000.0001) implicitViscosity = /* Implicit viscosity on/off flag */
(PID.TID 0000.0001)                   F
(PID.TID 0000.0001)     ;
(PID.TID 0000.0001) metricTerms =  /* metric-Terms on/off flag */
(PID.TID 0000.0001)                   F
(PID.TID 0000.0001)     ;
(PID.TID 0000.0001) useNHMTerms = /* Non-Hydrostatic Metric-Terms on/off */
(PID.TID 0000.0001)                   T
(PID.TID 0000.0001)     ;
(PID.TID 0000.0001) useConstantF =  /* use Constant f0 Coriolis flag */
(PID.TID 0000.0001)                   F
(PID.TID 0000.0001)     ;
(PID.TID 0000.0001) useBetaPlaneF = /* use Beta-Plane Coriolis flag */
(PID.TID 0000.0001)                   F
(PID.TID 0000.0001)     ;
(PID.TID 0000.0001) useSphereF  =   /* use Spherical Coriolis flag */
(PID.TID 0000.0001)                   T
(PID.TID 0000.0001)     ;
(PID.TID 0000.0001) use3dCoriolis = /* 3-D Coriolis on/off flag */
(PID.TID 0000.0001)                   T
(PID.TID 0000.0001)     ;
(PID.TID 0000.0001) useCoriolis =  /* Coriolis on/off flag */
(PID.TID 0000.0001)                   T
(PID.TID 0000.0001)     ;
(PID.TID 0000.0001) useCDscheme =  /* CD scheme on/off flag */
(PID.TID 0000.0001)                   F
(PID.TID 0000.0001)     ;
(PID.TID 0000.0001) useJamartWetPoints= /* Coriolis WetPoints method flag */
(PID.TID 0000.0001)                   F
(PID.TID 0000.0001)     ;
(PID.TID 0000.0001) useJamartMomAdv= /* V.I. Non-linear terms Jamart flag */
(PID.TID 0000.0001)                   F
(PID.TID 0000.0001)     ;
(PID.TID 0000.0001) useAbsVorticity= /* Work with f+zeta in Coriolis */
(PID.TID 0000.0001)                   F
(PID.TID 0000.0001)     ;
(PID.TID 0000.0001) selectVortScheme= /* Scheme selector for Vorticity-Term */
(PID.TID 0000.0001)                       1
(PID.TID 0000.0001)    = 0 : enstrophy (Shallow-Water Eq.) conserving scheme by Sadourny, JAS 75
(PID.TID 0000.0001)    = 1 : same as 0 with modified hFac
(PID.TID 0000.0001)    = 2 : energy conserving scheme (used by Sadourny in JAS 75 paper)
(PID.TID 0000.0001)    = 3 : energy (general) and enstrophy (2D, nonDiv.) conserving scheme
(PID.TID 0000.0001)          from Sadourny (Burridge & Haseler, ECMWF Rep.4, 1977)
(PID.TID 0000.0001)     ;
(PID.TID 0000.0001) upwindVorticity= /* Upwind bias vorticity flag */
(PID.TID 0000.0001)                   F
(PID.TID 0000.0001)     ;
(PID.TID 0000.0001) highOrderVorticity= /* High order interp. of vort. flag */
(PID.TID 0000.0001)                   F
(PID.TID 0000.0001)     ;
(PID.TID 0000.0001) upwindShear= /* Upwind vertical Shear advection flag */
(PID.TID 0000.0001)                   F
(PID.TID 0000.0001)     ;
(PID.TID 0000.0001) selectKEscheme= /* Kinetic Energy scheme selector */
(PID.TID 0000.0001)                       0
(PID.TID 0000.0001)     ;
(PID.TID 0000.0001) momForcing =  /* Momentum forcing on/off flag */
(PID.TID 0000.0001)                   T
(PID.TID 0000.0001)     ;
(PID.TID 0000.0001) momPressureForcing =  /* Momentum pressure term on/off flag */
(PID.TID 0000.0001)                   T
(PID.TID 0000.0001)     ;
(PID.TID 0000.0001) implicitIntGravWave= /* Implicit Internal Gravity Wave flag */
(PID.TID 0000.0001)                   F
(PID.TID 0000.0001)     ;
(PID.TID 0000.0001) staggerTimeStep =   /* Stagger time stepping on/off flag */
(PID.TID 0000.0001)                   T
(PID.TID 0000.0001)     ;
(PID.TID 0000.0001) multiDimAdvection =   /* enable/disable Multi-Dim Advection */
(PID.TID 0000.0001)                   T
(PID.TID 0000.0001)     ;
(PID.TID 0000.0001) useMultiDimAdvec =   /* Multi-Dim Advection is/is-not used */
(PID.TID 0000.0001)                   F
(PID.TID 0000.0001)     ;
(PID.TID 0000.0001) implicitDiffusion =/* Implicit Diffusion on/off flag */
(PID.TID 0000.0001)                   T
(PID.TID 0000.0001)     ;
(PID.TID 0000.0001) tempStepping =  /* Temperature equation on/off flag */
(PID.TID 0000.0001)                   T
(PID.TID 0000.0001)     ;
(PID.TID 0000.0001) tempAdvection=  /* Temperature advection on/off flag */
(PID.TID 0000.0001)                   T
(PID.TID 0000.0001)     ;
(PID.TID 0000.0001) tempImplVertAdv =/* Temp. implicit vert. advection on/off */
(PID.TID 0000.0001)                   F
(PID.TID 0000.0001)     ;
(PID.TID 0000.0001) tempForcing  =  /* Temperature forcing on/off flag */
(PID.TID 0000.0001)                   T
(PID.TID 0000.0001)     ;
(PID.TID 0000.0001) tempIsActiveTr = /* Temp. is a dynamically Active Tracer */
(PID.TID 0000.0001)                   T
(PID.TID 0000.0001)     ;
(PID.TID 0000.0001) saltStepping =  /* Salinity equation on/off flag */
(PID.TID 0000.0001)                   T
(PID.TID 0000.0001)     ;
(PID.TID 0000.0001) saltAdvection=  /* Salinity advection on/off flag */
(PID.TID 0000.0001)                   T
(PID.TID 0000.0001)     ;
(PID.TID 0000.0001) saltImplVertAdv =/* Sali. implicit vert. advection on/off */
(PID.TID 0000.0001)                   F
(PID.TID 0000.0001)     ;
(PID.TID 0000.0001) saltForcing  =  /* Salinity forcing on/off flag */
(PID.TID 0000.0001)                   T
(PID.TID 0000.0001)     ;
(PID.TID 0000.0001) saltIsActiveTr = /* Salt  is a dynamically Active Tracer */
(PID.TID 0000.0001)                   T
(PID.TID 0000.0001)     ;
(PID.TID 0000.0001)  readBinaryPrec = /* Precision used for reading binary files */
(PID.TID 0000.0001)                      64
(PID.TID 0000.0001)     ;
(PID.TID 0000.0001) writeBinaryPrec = /* Precision used for writing binary files */
(PID.TID 0000.0001)                      32
(PID.TID 0000.0001)     ;
(PID.TID 0000.0001)  globalFiles = /* write "global" (=not per tile) files */
(PID.TID 0000.0001)                   F
(PID.TID 0000.0001)     ;
(PID.TID 0000.0001)  useSingleCpuIO = /* only master MPI process does I/O */
(PID.TID 0000.0001)                   F
(PID.TID 0000.0001)     ;
(PID.TID 0000.0001)  debugMode  =  /* Debug Mode on/off flag */
(PID.TID 0000.0001)                   F
(PID.TID 0000.0001)     ;
(PID.TID 0000.0001)    debLevA  =  /* 1rst level of debugging */
(PID.TID 0000.0001)                       1
(PID.TID 0000.0001)     ;
(PID.TID 0000.0001)    debLevB  =  /* 2nd  level of debugging */
(PID.TID 0000.0001)                       2
(PID.TID 0000.0001)     ;
(PID.TID 0000.0001)  debugLevel =  /* select debugging level */
(PID.TID 0000.0001)                       1
(PID.TID 0000.0001)     ;
(PID.TID 0000.0001) //
(PID.TID 0000.0001) // Elliptic solver(s) paramters ( PARM02 in namelist )
(PID.TID 0000.0001) //
(PID.TID 0000.0001) cg2dMaxIters =   /* Upper limit on 2d con. grad iterations  */
(PID.TID 0000.0001)                     200
(PID.TID 0000.0001)     ;
(PID.TID 0000.0001) cg2dChkResFreq =   /* 2d con. grad convergence test frequency */
(PID.TID 0000.0001)                       1
(PID.TID 0000.0001)     ;
(PID.TID 0000.0001) cg2dTargetResidual =   /* 2d con. grad target residual  */
(PID.TID 0000.0001)                 1.000000000000000E-07
(PID.TID 0000.0001)     ;
(PID.TID 0000.0001) cg2dTargetResWunit =   /* CG2d target residual [W units] */
(PID.TID 0000.0001)                 1.000000000000000E-14
(PID.TID 0000.0001)     ;
(PID.TID 0000.0001) cg2dPreCondFreq =   /* Freq. for updating cg2d preconditioner */
(PID.TID 0000.0001)                       1
(PID.TID 0000.0001)     ;
(PID.TID 0000.0001) //
(PID.TID 0000.0001) // Time stepping paramters ( PARM03 in namelist )
(PID.TID 0000.0001) //
(PID.TID 0000.0001) deltaTmom =   /* Momentum equation timestep ( s ) */
(PID.TID 0000.0001)                 3.600000000000000E+03
(PID.TID 0000.0001)     ;
(PID.TID 0000.0001) deltaTfreesurf =   /* FreeSurface equation timestep ( s ) */
(PID.TID 0000.0001)                 3.600000000000000E+03
(PID.TID 0000.0001)     ;
(PID.TID 0000.0001) dTtracerLev =   /* Tracer equation timestep ( s ) */
(PID.TID 0000.0001)    15 @  3.600000000000000E+03              /* K =  1: 15 */
(PID.TID 0000.0001)     ;
(PID.TID 0000.0001) deltaTClock  =   /* Model clock timestep ( s ) */
(PID.TID 0000.0001)                 3.600000000000000E+03
(PID.TID 0000.0001)     ;
(PID.TID 0000.0001) cAdjFreq =   /* Convective adjustment interval ( s ) */
(PID.TID 0000.0001)                 0.000000000000000E+00
(PID.TID 0000.0001)     ;
(PID.TID 0000.0001) momForcingOutAB = /* =1: take Momentum Forcing out of Adams-Bash. stepping */
(PID.TID 0000.0001)                       1
(PID.TID 0000.0001)     ;
(PID.TID 0000.0001) tracForcingOutAB = /* =1: take T,S,pTr Forcing out of Adams-Bash. stepping */
(PID.TID 0000.0001)                       1
(PID.TID 0000.0001)     ;
(PID.TID 0000.0001) momDissip_In_AB = /* put Dissipation Tendency in Adams-Bash. stepping */
(PID.TID 0000.0001)                   T
(PID.TID 0000.0001)     ;
(PID.TID 0000.0001) doAB_onGtGs = /* apply AB on Tendencies (rather than on T,S)*/
(PID.TID 0000.0001)                   T
(PID.TID 0000.0001)     ;
(PID.TID 0000.0001) abEps =   /* Adams-Bashforth-2 stabilizing weight */
(PID.TID 0000.0001)                 1.200000000000000E-01
(PID.TID 0000.0001)     ;
(PID.TID 0000.0001) pickupStrictlyMatch= /* stop if pickup do not strictly match */
(PID.TID 0000.0001)                   F
(PID.TID 0000.0001)     ;
(PID.TID 0000.0001) nIter0 =   /* Run starting timestep number  */
(PID.TID 0000.0001)                   86400
(PID.TID 0000.0001)     ;
(PID.TID 0000.0001) nTimeSteps =   /* Number of timesteps */
(PID.TID 0000.0001)                      10
(PID.TID 0000.0001)     ;
(PID.TID 0000.0001) baseTime =   /* Model base time ( s ). */
(PID.TID 0000.0001)                 0.000000000000000E+00
(PID.TID 0000.0001)     ;
(PID.TID 0000.0001) startTime =   /* Run start time ( s ). */
(PID.TID 0000.0001)                 3.110400000000000E+08
(PID.TID 0000.0001)     ;
(PID.TID 0000.0001) endTime =   /* Integration ending time ( s ). */
(PID.TID 0000.0001)                 3.110760000000000E+08
(PID.TID 0000.0001)     ;
(PID.TID 0000.0001) pChkPtFreq =   /* Permanent restart/checkpoint file interval ( s ). */
(PID.TID 0000.0001)                 3.110400000000000E+07
(PID.TID 0000.0001)     ;
(PID.TID 0000.0001) chkPtFreq =   /* Rolling restart/checkpoint file interval ( s ). */
(PID.TID 0000.0001)                 0.000000000000000E+00
(PID.TID 0000.0001)     ;
(PID.TID 0000.0001) pickup_write_mdsio =   /* Model IO flag. */
(PID.TID 0000.0001)                   T
(PID.TID 0000.0001)     ;
(PID.TID 0000.0001) pickup_read_mdsio =   /* Model IO flag. */
(PID.TID 0000.0001)                   T
(PID.TID 0000.0001)     ;
(PID.TID 0000.0001) pickup_write_mnc =   /* Model IO flag. */
(PID.TID 0000.0001)                   F
(PID.TID 0000.0001)     ;
(PID.TID 0000.0001) pickup_read_mnc =   /* Model IO flag. */
(PID.TID 0000.0001)                   F
(PID.TID 0000.0001)     ;
(PID.TID 0000.0001) pickup_write_immed =   /* Model IO flag. */
(PID.TID 0000.0001)                   F
(PID.TID 0000.0001)     ;
(PID.TID 0000.0001) writePickupAtEnd =   /* Model IO flag. */
(PID.TID 0000.0001)                   T
(PID.TID 0000.0001)     ;
(PID.TID 0000.0001) dumpFreq =   /* Model state write out interval ( s ). */
(PID.TID 0000.0001)                 3.110400000000000E+07
(PID.TID 0000.0001)     ;
(PID.TID 0000.0001) dumpInitAndLast= /* write out Initial & Last iter. model state */
(PID.TID 0000.0001)                   T
(PID.TID 0000.0001)     ;
(PID.TID 0000.0001) snapshot_mdsio =   /* Model IO flag. */
(PID.TID 0000.0001)                   T
(PID.TID 0000.0001)     ;
(PID.TID 0000.0001) snapshot_mnc =   /* Model IO flag. */
(PID.TID 0000.0001)                   F
(PID.TID 0000.0001)     ;
(PID.TID 0000.0001) monitorFreq =   /* Monitor output interval ( s ). */
(PID.TID 0000.0001)                 1.000000000000000E+00
(PID.TID 0000.0001)     ;
(PID.TID 0000.0001) monitorSelect = /* select group of variables to monitor */
(PID.TID 0000.0001)                       3
(PID.TID 0000.0001)     ;
(PID.TID 0000.0001) monitor_stdio =   /* Model IO flag. */
(PID.TID 0000.0001)                   T
(PID.TID 0000.0001)     ;
(PID.TID 0000.0001) monitor_mnc =   /* Model IO flag. */
(PID.TID 0000.0001)                   F
(PID.TID 0000.0001)     ;
(PID.TID 0000.0001) externForcingPeriod =   /* forcing period (s) */
(PID.TID 0000.0001)                 2.592000000000000E+06
(PID.TID 0000.0001)     ;
(PID.TID 0000.0001) externForcingCycle =   /* period of the cyle (s). */
(PID.TID 0000.0001)                 3.110400000000000E+07
(PID.TID 0000.0001)     ;
(PID.TID 0000.0001) tauThetaClimRelax =   /* relaxation time scale (s) */
(PID.TID 0000.0001)                 5.184000000000000E+06
(PID.TID 0000.0001)     ;
(PID.TID 0000.0001) tauSaltClimRelax =   /* relaxation time scale (s) */
(PID.TID 0000.0001)                 6.220800000000000E+07
(PID.TID 0000.0001)     ;
(PID.TID 0000.0001) latBandClimRelax =   /* max. Lat. where relaxation */
(PID.TID 0000.0001)                 1.800000000000000E+02
(PID.TID 0000.0001)     ;
(PID.TID 0000.0001) //
(PID.TID 0000.0001) // Gridding paramters ( PARM04 in namelist )
(PID.TID 0000.0001) //
(PID.TID 0000.0001) usingCartesianGrid = /* Cartesian coordinates flag ( True/False ) */
(PID.TID 0000.0001)                   F
(PID.TID 0000.0001)     ;
(PID.TID 0000.0001) usingCylindricalGrid = /* Cylindrical coordinates flag ( True/False ) */
(PID.TID 0000.0001)                   F
(PID.TID 0000.0001)     ;
(PID.TID 0000.0001) usingSphericalPolarGrid = /* Spherical coordinates flag ( True/False ) */
(PID.TID 0000.0001)                   F
(PID.TID 0000.0001)     ;
(PID.TID 0000.0001) usingCurvilinearGrid = /* Curvilinear coordinates flag ( True/False ) */
(PID.TID 0000.0001)                   T
(PID.TID 0000.0001)     ;
(PID.TID 0000.0001) Ro_SeaLevel = /* r(1) ( units of r ==  m ) */
(PID.TID 0000.0001)                 0.000000000000000E+00
(PID.TID 0000.0001)     ;
(PID.TID 0000.0001) rkSign =   /* index orientation relative to vertical coordinate */
(PID.TID 0000.0001)                -1.000000000000000E+00
(PID.TID 0000.0001)     ;
(PID.TID 0000.0001) gravitySign = /* gravity orientation relative to vertical coordinate */
(PID.TID 0000.0001)                -1.000000000000000E+00
(PID.TID 0000.0001)     ;
(PID.TID 0000.0001) mass2rUnit = /* convert mass per unit area [kg/m2] to r-units [m] */
(PID.TID 0000.0001)                 9.661835748792270E-04
(PID.TID 0000.0001)     ;
(PID.TID 0000.0001) rUnit2mass = /* convert r-units [m] to mass per unit area [kg/m2] */
(PID.TID 0000.0001)                 1.035000000000000E+03
(PID.TID 0000.0001)     ;
(PID.TID 0000.0001) drC =   /* C spacing ( units of r ) */
(PID.TID 0000.0001)                 2.500000000000000E+01,      /* K =  1 */
(PID.TID 0000.0001)                 6.000000000000000E+01,      /* K =  2 */
(PID.TID 0000.0001)                 8.500000000000000E+01,      /* K =  3 */
(PID.TID 0000.0001)                 1.200000000000000E+02,      /* K =  4 */
(PID.TID 0000.0001)                 1.650000000000000E+02,      /* K =  5 */
(PID.TID 0000.0001)                 2.150000000000000E+02,      /* K =  6 */
(PID.TID 0000.0001)                 2.650000000000000E+02,      /* K =  7 */
(PID.TID 0000.0001)                 3.150000000000000E+02,      /* K =  8 */
(PID.TID 0000.0001)                 3.650000000000000E+02,      /* K =  9 */
(PID.TID 0000.0001)                 4.150000000000000E+02,      /* K = 10 */
(PID.TID 0000.0001)                 4.650000000000000E+02,      /* K = 11 */
(PID.TID 0000.0001)                 5.150000000000000E+02,      /* K = 12 */
(PID.TID 0000.0001)                 5.650000000000000E+02,      /* K = 13 */
(PID.TID 0000.0001)                 6.150000000000000E+02,      /* K = 14 */
(PID.TID 0000.0001)                 6.650000000000000E+02       /* K = 15 */
(PID.TID 0000.0001)     ;
(PID.TID 0000.0001) drF =   /* W spacing ( units of r ) */
(PID.TID 0000.0001)                 5.000000000000000E+01,      /* K =  1 */
(PID.TID 0000.0001)                 7.000000000000000E+01,      /* K =  2 */
(PID.TID 0000.0001)                 1.000000000000000E+02,      /* K =  3 */
[...]
(PID.TID 0000.0001) %MON extforcing_empmr_min         =  -1.5362614137596E-04
(PID.TID 0000.0001) %MON extforcing_empmr_mean        =   4.1932798010144E-22
(PID.TID 0000.0001) %MON extforcing_empmr_sd          =   2.4051723601802E-05
(PID.TID 0000.0001) %MON extforcing_empmr_del2        =   1.2835223797615E-06
(PID.TID 0000.0001) %MON advcfl_uvel_max              =   3.4590726073599E-03
(PID.TID 0000.0001) %MON advcfl_vvel_max              =   3.6025087727704E-03
(PID.TID 0000.0001) %MON advcfl_wvel_max              =   3.5146787933406E-03
(PID.TID 0000.0001) %MON advcfl_W_hf_max              =   3.8807911676470E-03
(PID.TID 0000.0001) %MON pe_b_mean                    =   4.7704225186281E-04
(PID.TID 0000.0001) %MON ke_max                       =   4.1400865027905E-02
(PID.TID 0000.0001) %MON ke_mean                      =   1.5229612568356E-04
(PID.TID 0000.0001) %MON ke_vol                       =   1.3398024453628E+18
(PID.TID 0000.0001) %MON vort_r_min                   =  -1.4640500133650E-06
(PID.TID 0000.0001) %MON vort_r_max                   =   1.4913321916480E-06
(PID.TID 0000.0001) %MON vort_a_mean                  =  -2.0549865324846E-05
(PID.TID 0000.0001) %MON vort_a_sd                    =   7.5259522006644E-05
(PID.TID 0000.0001) %MON vort_p_mean                  =  -2.4783522345032E-05
(PID.TID 0000.0001) %MON vort_p_sd                    =   1.2810654264826E-04
(PID.TID 0000.0001) %MON surfExpan_theta_mean         =   2.3420910456036E-07
(PID.TID 0000.0001) %MON surfExpan_salt_mean          =   5.0772355005831E-08
(PID.TID 0000.0001) // =======================================================
(PID.TID 0000.0001) // End MONITOR dynamic field statistics
(PID.TID 0000.0001) // =======================================================
 cg2d: Sum(rhs),rhsMax =  -7.68523022998124E-11  4.24326081626835E+00
(PID.TID 0000.0001)                    cg2d_init_res =    1.05699381622582E-01
(PID.TID 0000.0001)                       cg2d_iters =    29
(PID.TID 0000.0001)                         cg2d_res =    1.90095562618230E-07
 cg3d: Sum(rhs),rhsMax =   8.15593128434102E-10  1.21904171773135E-03
(PID.TID 0000.0001)                    cg3d_init_res =    5.75496843197869E-01
(PID.TID 0000.0001)                       cg3d_iters =    46
(PID.TID 0000.0001)                         cg3d_res =    7.12895761372975E-10
(PID.TID 0000.0001) // =======================================================
(PID.TID 0000.0001) // Begin MONITOR dynamic field statistics
(PID.TID 0000.0001) // =======================================================
(PID.TID 0000.0001) %MON time_tsnumber                =                 86410
(PID.TID 0000.0001) %MON time_secondsf                =   3.1107600000000E+08
(PID.TID 0000.0001) %MON dynstat_eta_max              =   9.2524379999525E-01
(PID.TID 0000.0001) %MON dynstat_eta_min              =  -1.6142559023721E+00
(PID.TID 0000.0001) %MON dynstat_eta_mean             =   1.4317641900547E-14
(PID.TID 0000.0001) %MON dynstat_eta_sd               =   5.9847580945206E-01
(PID.TID 0000.0001) %MON dynstat_eta_del2             =   1.1442575135017E-02
(PID.TID 0000.0001) %MON dynstat_uvel_max             =   1.9922672325314E-01
(PID.TID 0000.0001) %MON dynstat_uvel_min             =  -2.9328322556891E-01
(PID.TID 0000.0001) %MON dynstat_uvel_mean            =  -4.9661947315909E-04
(PID.TID 0000.0001) %MON dynstat_uvel_sd              =   1.2571462574784E-02
(PID.TID 0000.0001) %MON dynstat_uvel_del2            =   1.8550925901286E-03
(PID.TID 0000.0001) %MON dynstat_vvel_max             =   1.9124067621498E-01
(PID.TID 0000.0001) %MON dynstat_vvel_min             =  -2.2996915214987E-01
(PID.TID 0000.0001) %MON dynstat_vvel_mean            =  -3.8117967252357E-04
(PID.TID 0000.0001) %MON dynstat_vvel_sd              =   1.3145997404523E-02
(PID.TID 0000.0001) %MON dynstat_vvel_del2            =   1.8757029839675E-03
(PID.TID 0000.0001) %MON dynstat_wvel_max             =   1.7233223315978E-04
(PID.TID 0000.0001) %MON dynstat_wvel_min             =  -2.6269950069779E-04
(PID.TID 0000.0001) %MON dynstat_wvel_mean            =   1.0443655997226E-22
(PID.TID 0000.0001) %MON dynstat_wvel_sd              =   5.5317610193194E-06
(PID.TID 0000.0001) %MON dynstat_wvel_del2            =   1.7013580051300E-06
(PID.TID 0000.0001) %MON dynstat_theta_max            =   3.0932817802471E+01
(PID.TID 0000.0001) %MON dynstat_theta_min            =  -3.0366582533003E+00
(PID.TID 0000.0001) %MON dynstat_theta_mean           =   3.9089321396158E+00
(PID.TID 0000.0001) %MON dynstat_theta_sd             =   4.5708600645448E+00
(PID.TID 0000.0001) %MON dynstat_theta_del2           =   8.7682784549027E-02
(PID.TID 0000.0001) %MON dynstat_salt_max             =   4.1386635072026E+01
(PID.TID 0000.0001) %MON dynstat_salt_min             =   1.8383530863805E+01
(PID.TID 0000.0001) %MON dynstat_salt_mean            =   3.4772067396006E+01
(PID.TID 0000.0001) %MON dynstat_salt_sd              =   5.3152156906690E-01
(PID.TID 0000.0001) %MON dynstat_salt_del2            =   1.8681299246372E-02
(PID.TID 0000.0001) %MON extforcing_qnet_max          =   4.5341284527210E+02
(PID.TID 0000.0001) %MON extforcing_qnet_min          =  -2.1466110977259E+02
(PID.TID 0000.0001) %MON extforcing_qnet_mean         =  -1.2150408029885E+01
(PID.TID 0000.0001) %MON extforcing_qnet_sd           =   1.1557613062980E+02
(PID.TID 0000.0001) %MON extforcing_qnet_del2         =   5.1076894634826E+00
(PID.TID 0000.0001) %MON extforcing_qsw_max           =   0.0000000000000E+00
(PID.TID 0000.0001) %MON extforcing_qsw_min           =   0.0000000000000E+00
(PID.TID 0000.0001) %MON extforcing_qsw_mean          =   0.0000000000000E+00
(PID.TID 0000.0001) %MON extforcing_qsw_sd            =   0.0000000000000E+00
(PID.TID 0000.0001) %MON extforcing_qsw_del2          =   0.0000000000000E+00
(PID.TID 0000.0001) %MON extforcing_empmr_max         =   7.6494447208479E-05
(PID.TID 0000.0001) %MON extforcing_empmr_min         =  -1.5362614137596E-04
(PID.TID 0000.0001) %MON extforcing_empmr_mean        =   4.1932798010144E-22
(PID.TID 0000.0001) %MON extforcing_empmr_sd          =   2.4051723601802E-05
(PID.TID 0000.0001) %MON extforcing_empmr_del2        =   1.2835223797615E-06
(PID.TID 0000.0001) %MON advcfl_uvel_max              =   3.4658619153712E-03
(PID.TID 0000.0001) %MON advcfl_vvel_max              =   3.6311130904886E-03
(PID.TID 0000.0001) %MON advcfl_wvel_max              =   3.5687479340077E-03
(PID.TID 0000.0001) %MON advcfl_W_hf_max              =   3.9404925104668E-03
(PID.TID 0000.0001) %MON pe_b_mean                    =   4.7715301729772E-04
(PID.TID 0000.0001) %MON ke_max                       =   4.1519539079057E-02
(PID.TID 0000.0001) %MON ke_mean                      =   1.5296121715105E-04
(PID.TID 0000.0001) %MON ke_vol                       =   1.3398024453628E+18
(PID.TID 0000.0001) %MON vort_r_min                   =  -1.4656636482526E-06
(PID.TID 0000.0001) %MON vort_r_max                   =   1.4830092076982E-06
(PID.TID 0000.0001) %MON vort_a_mean                  =  -2.0549865324846E-05
(PID.TID 0000.0001) %MON vort_a_sd                    =   7.5259521266964E-05
(PID.TID 0000.0001) %MON vort_p_mean                  =  -2.4783522345032E-05
(PID.TID 0000.0001) %MON vort_p_sd                    =   1.2810653798620E-04
(PID.TID 0000.0001) %MON surfExpan_theta_mean         =   2.5901801320607E-07
(PID.TID 0000.0001) %MON surfExpan_salt_mean          =   4.9439199079728E-08
(PID.TID 0000.0001) // =======================================================
(PID.TID 0000.0001) // End MONITOR dynamic field statistics
(PID.TID 0000.0001) // =======================================================
(PID.TID 0000.0001) %CHECKPOINT     86410 ckptA
(PID.TID 0000.0001)   Seconds in section "ALL                    [THE_MODEL_MAIN]":
(PID.TID 0000.0001)           User time:  57.4572659
(PID.TID 0000.0001)         System time:  1.84771897
(PID.TID 0000.0001)     Wall clock time:  72.612323
(PID.TID 0000.0001)          No. starts: 1
(PID.TID 0000.0001)           No. stops: 1
(PID.TID 0000.0001)   Seconds in section "INITIALISE_FIXED       [THE_MODEL_MAIN]":
(PID.TID 0000.0001)           User time:  0.719891014
(PID.TID 0000.0001)         System time:  0.209968006
(PID.TID 0000.0001)     Wall clock time:  1.510005
(PID.TID 0000.0001)          No. starts: 1
(PID.TID 0000.0001)           No. stops: 1
(PID.TID 0000.0001)   Seconds in section "THE_MAIN_LOOP          [THE_MODEL_MAIN]":
(PID.TID 0000.0001)           User time:  56.7363755
(PID.TID 0000.0001)         System time:  1.63775097
(PID.TID 0000.0001)     Wall clock time:  71.1021571
(PID.TID 0000.0001)          No. starts: 1
(PID.TID 0000.0001)           No. stops: 1
(PID.TID 0000.0001)   Seconds in section "INITIALISE_VARIA    [THE_MAIN_LOOP]":
(PID.TID 0000.0001)           User time:  1.23981202
(PID.TID 0000.0001)         System time:  0.582912013
(PID.TID 0000.0001)     Wall clock time:  2.32852983
(PID.TID 0000.0001)          No. starts: 1
(PID.TID 0000.0001)           No. stops: 1
(PID.TID 0000.0001)   Seconds in section "MAIN LOOP           [THE_MAIN_LOOP]":
(PID.TID 0000.0001)           User time:  55.4965634
(PID.TID 0000.0001)         System time:  1.05483896
(PID.TID 0000.0001)     Wall clock time:  68.773494
(PID.TID 0000.0001)          No. starts: 1
(PID.TID 0000.0001)           No. stops: 1
(PID.TID 0000.0001)   Seconds in section "FORWARD_STEP        [THE_MAIN_LOOP]":
(PID.TID 0000.0001)           User time:  55.4965634
(PID.TID 0000.0001)         System time:  1.05483896
(PID.TID 0000.0001)     Wall clock time:  68.7730103
(PID.TID 0000.0001)          No. starts: 10
(PID.TID 0000.0001)           No. stops: 10
(PID.TID 0000.0001)   Seconds in section "LOAD_FIELDS_DRIVER  [FORWARD_STEP]":
(PID.TID 0000.0001)           User time:  0.0559911728
(PID.TID 0000.0001)         System time:  0.018996954
(PID.TID 0000.0001)     Wall clock time:  0.0760469437
(PID.TID 0000.0001)          No. starts: 10
(PID.TID 0000.0001)           No. stops: 10
(PID.TID 0000.0001)   Seconds in section "EXTERNAL_FLDS_LOAD [LOAD_FLDS_DRIVER]":
(PID.TID 0000.0001)           User time:  0.0559911728
(PID.TID 0000.0001)         System time:  0.018996954
(PID.TID 0000.0001)     Wall clock time:  0.0752232075
(PID.TID 0000.0001)          No. starts: 10
(PID.TID 0000.0001)           No. stops: 10
(PID.TID 0000.0001)   Seconds in section "DO_ATMOSPHERIC_PHYS [FORWARD_STEP]":
(PID.TID 0000.0001)           User time:  0.000997543335
(PID.TID 0000.0001)         System time:  0.
(PID.TID 0000.0001)     Wall clock time:  0.000410318375
(PID.TID 0000.0001)          No. starts: 10
(PID.TID 0000.0001)           No. stops: 10
(PID.TID 0000.0001)   Seconds in section "DO_OCEANIC_PHYS     [FORWARD_STEP]":
(PID.TID 0000.0001)           User time:  3.5514617
(PID.TID 0000.0001)         System time:  0.142978072
(PID.TID 0000.0001)     Wall clock time:  4.54091573
(PID.TID 0000.0001)          No. starts: 10
(PID.TID 0000.0001)           No. stops: 10
(PID.TID 0000.0001)   Seconds in section "DYNAMICS            [FORWARD_STEP]":
(PID.TID 0000.0001)           User time:  9.90349078
(PID.TID 0000.0001)         System time:  0.147978842
(PID.TID 0000.0001)     Wall clock time:  12.4765532
(PID.TID 0000.0001)          No. starts: 10
(PID.TID 0000.0001)           No. stops: 10
(PID.TID 0000.0001)   Seconds in section "CALC_GW          [DYNAMICS]":
(PID.TID 0000.0001)           User time:  2.54361439
(PID.TID 0000.0001)         System time:  0.0269960165
(PID.TID 0000.0001)     Wall clock time:  3.14841342
(PID.TID 0000.0001)          No. starts: 60
(PID.TID 0000.0001)           No. stops: 60
(PID.TID 0000.0001)   Seconds in section "SOLVE_FOR_PRESSURE  [FORWARD_STEP]":
(PID.TID 0000.0001)           User time:  31.3312428
(PID.TID 0000.0001)         System time:  0.189968109
(PID.TID 0000.0001)     Wall clock time:  37.9468787
(PID.TID 0000.0001)          No. starts: 10
(PID.TID 0000.0001)           No. stops: 10
(PID.TID 0000.0001)   Seconds in section "CG3D   [SOLVE_FOR_PRESSURE]":
(PID.TID 0000.0001)           User time:  29.6594896
(PID.TID 0000.0001)         System time:  0.180971026
(PID.TID 0000.0001)     Wall clock time:  36.0237601
(PID.TID 0000.0001)          No. starts: 10
(PID.TID 0000.0001)           No. stops: 10
(PID.TID 0000.0001)   Seconds in section "MOM_CORRECTION_STEP [FORWARD_STEP]":
(PID.TID 0000.0001)           User time:  0.637899876
(PID.TID 0000.0001)         System time:  0.0149980783
(PID.TID 0000.0001)     Wall clock time:  0.81197691
(PID.TID 0000.0001)          No. starts: 10
(PID.TID 0000.0001)           No. stops: 10
(PID.TID 0000.0001)   Seconds in section "UPDATE_ETAH         [FORWARD_STEP]":
(PID.TID 0000.0001)           User time:  0.00599861145
(PID.TID 0000.0001)         System time:  0.000999927521
(PID.TID 0000.0001)     Wall clock time:  0.00631523132
(PID.TID 0000.0001)          No. starts: 10
(PID.TID 0000.0001)           No. stops: 10
(PID.TID 0000.0001)   Seconds in section "BLOCKING_EXCHANGES  [FORWARD_STEP]":
(PID.TID 0000.0001)           User time:  0.629903793
(PID.TID 0000.0001)         System time:  0.0259970427
(PID.TID 0000.0001)     Wall clock time:  0.828855038
(PID.TID 0000.0001)          No. starts: 20
(PID.TID 0000.0001)           No. stops: 20
(PID.TID 0000.0001)   Seconds in section "THERMODYNAMICS      [FORWARD_STEP]":
(PID.TID 0000.0001)           User time:  5.13321209
(PID.TID 0000.0001)         System time:  0.0389950275
(PID.TID 0000.0001)     Wall clock time:  6.4230938
(PID.TID 0000.0001)          No. starts: 10
(PID.TID 0000.0001)           No. stops: 10
(PID.TID 0000.0001)   Seconds in section "TRC_CORRECTION_STEP [FORWARD_STEP]":
(PID.TID 0000.0001)           User time:  0.0939917564
(PID.TID 0000.0001)         System time:  0.00199902058
(PID.TID 0000.0001)     Wall clock time:  0.102489948
(PID.TID 0000.0001)          No. starts: 10
(PID.TID 0000.0001)           No. stops: 10
(PID.TID 0000.0001)   Seconds in section "DO_STATEVARS_TAVE   [FORWARD_STEP]":
(PID.TID 0000.0001)           User time:  1.50577402
(PID.TID 0000.0001)         System time:  0.0149979591
(PID.TID 0000.0001)     Wall clock time:  1.88637996
(PID.TID 0000.0001)          No. starts: 10
(PID.TID 0000.0001)           No. stops: 10
(PID.TID 0000.0001)   Seconds in section "MONITOR             [FORWARD_STEP]":
(PID.TID 0000.0001)           User time:  2.18366909
(PID.TID 0000.0001)         System time:  0.00599896908
(PID.TID 0000.0001)     Wall clock time:  2.54871941
(PID.TID 0000.0001)          No. starts: 10
(PID.TID 0000.0001)           No. stops: 10
(PID.TID 0000.0001)   Seconds in section "DO_THE_MODEL_IO     [FORWARD_STEP]":
(PID.TID 0000.0001)           User time:  0.140975952
(PID.TID 0000.0001)         System time:  0.15297699
(PID.TID 0000.0001)     Wall clock time:  0.393885851
(PID.TID 0000.0001)          No. starts: 10
(PID.TID 0000.0001)           No. stops: 10
(PID.TID 0000.0001)   Seconds in section "DO_WRITE_PICKUP     [FORWARD_STEP]":
(PID.TID 0000.0001)           User time:  0.312953949
(PID.TID 0000.0001)         System time:  0.297953963
(PID.TID 0000.0001)     Wall clock time:  0.723252058
(PID.TID 0000.0001)          No. starts: 10
(PID.TID 0000.0001)           No. stops: 10
(PID.TID 0000.0001) // ======================================================
(PID.TID 0000.0001) // Tile <-> Tile communication statistics
(PID.TID 0000.0001) // ======================================================
(PID.TID 0000.0001) // o Tile number: 000001
(PID.TID 0000.0001) //         No. X exchanges =              0
(PID.TID 0000.0001) //            Max. X spins =              0
(PID.TID 0000.0001) //            Min. X spins =     1000000000
(PID.TID 0000.0001) //          Total. X spins =              0
(PID.TID 0000.0001) //            Avg. X spins =       0.00E+00
(PID.TID 0000.0001) //         No. Y exchanges =              0
(PID.TID 0000.0001) //            Max. Y spins =              0
(PID.TID 0000.0001) //            Min. Y spins =     1000000000
(PID.TID 0000.0001) //          Total. Y spins =              0
(PID.TID 0000.0001) //            Avg. Y spins =       0.00E+00
(PID.TID 0000.0001) // o Tile number: 000002
(PID.TID 0000.0001) //         No. X exchanges =              0
(PID.TID 0000.0001) //            Max. X spins =              0
(PID.TID 0000.0001) //            Min. X spins =     1000000000
(PID.TID 0000.0001) //          Total. X spins =              0
(PID.TID 0000.0001) //            Avg. X spins =       0.00E+00
(PID.TID 0000.0001) //         No. Y exchanges =              0
(PID.TID 0000.0001) //            Max. Y spins =              0
(PID.TID 0000.0001) //            Min. Y spins =     1000000000
(PID.TID 0000.0001) //          Total. Y spins =              0
(PID.TID 0000.0001) //            Avg. Y spins =       0.00E+00
(PID.TID 0000.0001) // o Tile number: 000003
(PID.TID 0000.0001) //         No. X exchanges =              0
(PID.TID 0000.0001) //            Max. X spins =              0
(PID.TID 0000.0001) //            Min. X spins =     1000000000
(PID.TID 0000.0001) //          Total. X spins =              0
(PID.TID 0000.0001) //            Avg. X spins =       0.00E+00
(PID.TID 0000.0001) //         No. Y exchanges =              0
(PID.TID 0000.0001) //            Max. Y spins =              0
(PID.TID 0000.0001) //            Min. Y spins =     1000000000
(PID.TID 0000.0001) //          Total. Y spins =              0
(PID.TID 0000.0001) //            Avg. Y spins =       0.00E+00
(PID.TID 0000.0001) // o Tile number: 000004
(PID.TID 0000.0001) //         No. X exchanges =              0
(PID.TID 0000.0001) //            Max. X spins =              0
(PID.TID 0000.0001) //            Min. X spins =     1000000000
(PID.TID 0000.0001) //          Total. X spins =              0
(PID.TID 0000.0001) //            Avg. X spins =       0.00E+00
(PID.TID 0000.0001) //         No. Y exchanges =              0
(PID.TID 0000.0001) //            Max. Y spins =              0
(PID.TID 0000.0001) //            Min. Y spins =     1000000000
(PID.TID 0000.0001) //          Total. Y spins =              0
(PID.TID 0000.0001) //            Avg. Y spins =       0.00E+00
(PID.TID 0000.0001) // o Tile number: 000005
(PID.TID 0000.0001) //         No. X exchanges =              0
(PID.TID 0000.0001) //            Max. X spins =              0
(PID.TID 0000.0001) //            Min. X spins =     1000000000
(PID.TID 0000.0001) //          Total. X spins =              0
(PID.TID 0000.0001) //            Avg. X spins =       0.00E+00
(PID.TID 0000.0001) //         No. Y exchanges =              0
(PID.TID 0000.0001) //            Max. Y spins =              0
(PID.TID 0000.0001) //            Min. Y spins =     1000000000
(PID.TID 0000.0001) //          Total. Y spins =              0
(PID.TID 0000.0001) //            Avg. Y spins =       0.00E+00
(PID.TID 0000.0001) // o Tile number: 000006
(PID.TID 0000.0001) //         No. X exchanges =              0
(PID.TID 0000.0001) //            Max. X spins =              0
(PID.TID 0000.0001) //            Min. X spins =     1000000000
(PID.TID 0000.0001) //          Total. X spins =              0
(PID.TID 0000.0001) //            Avg. X spins =       0.00E+00
(PID.TID 0000.0001) //         No. Y exchanges =              0
(PID.TID 0000.0001) //            Max. Y spins =              0
(PID.TID 0000.0001) //            Min. Y spins =     1000000000
(PID.TID 0000.0001) //          Total. Y spins =              0
(PID.TID 0000.0001) //            Avg. Y spins =       0.00E+00
(PID.TID 0000.0001) // o Thread number: 000001
(PID.TID 0000.0001) //            No. barriers =          20156
(PID.TID 0000.0001) //      Max. barrier spins =              1
(PID.TID 0000.0001) //      Min. barrier spins =              1
(PID.TID 0000.0001) //     Total barrier spins =          20156
(PID.TID 0000.0001) //      Avg. barrier spins =       1.00E+00
