(PID.TID 0000.0001) 
(PID.TID 0000.0001) // ======================================================
(PID.TID 0000.0001) //                      MITgcm UV
(PID.TID 0000.0001) //                      =========
(PID.TID 0000.0001) // ======================================================
(PID.TID 0000.0001) // execution environment starting up...
(PID.TID 0000.0001) // Run starting Wed Apr  1 14:19:48 1998
(PID.TID 0000.0001) // on melville.lcs.mit.edu
(PID.TID 0000.0001) // account cnh
(PID.TID 0000.0001) // MITgcm UV Release: $Name:  $
(PID.TID 0000.0001) 
(PID.TID 0000.0001) // =======================================================
(PID.TID 0000.0001) // Execution Environment parameter file "eedata"
(PID.TID 0000.0001) // =======================================================
(PID.TID 0000.0001) ># Example "eedata" file
(PID.TID 0000.0001) ># Lines beginning "#" are comments
(PID.TID 0000.0001) ># nTx - No. threads per process in X
(PID.TID 0000.0001) ># nTy - No. threads per process in Y
(PID.TID 0000.0001) > &EEPARMS
(PID.TID 0000.0001) > useCubedSphereExchange=.TRUE.,
(PID.TID 0000.0001) > nTx=1,nTy=1
(PID.TID 0000.0001) > &
(PID.TID 0000.0001) ># Note: Some systems use & as the
(PID.TID 0000.0001) ># namelist terminator. Other systems
(PID.TID 0000.0001) ># use a / character (as shown here).
(PID.TID 0000.0001) 
(PID.TID 0000.0001) // =======================================================
(PID.TID 0000.0001) // Computational Grid Specification ( see files "SIZE.h" )
(PID.TID 0000.0001) //                                  ( and "eedata"       )
(PID.TID 0000.0001) // =======================================================
(PID.TID 0000.0001)      nPx =    1 ; /* No. processes in X */
(PID.TID 0000.0001)      nPy =    1 ; /* No. processes in Y */
(PID.TID 0000.0001)      nSx =    6 ; /* No. tiles in X per process */
(PID.TID 0000.0001)      nSy =    1 ; /* No. tiles in Y per process */
(PID.TID 0000.0001)      sNx =   32 ; /* Tile size in X */
(PID.TID 0000.0001)      sNy =   32 ; /* Tile size in Y */
(PID.TID 0000.0001)      OLx =    2 ; /* Tile overlap distance in X */
(PID.TID 0000.0001)      OLy =    2 ; /* Tile overlap distance in Y */
(PID.TID 0000.0001)      nTx =    1 ; /* No. threads in X per process */
(PID.TID 0000.0001)      nTy =    1 ; /* No. threads in Y per process */
(PID.TID 0000.0001)       Nr =   15 ; /* No. levels in the vertical   */
(PID.TID 0000.0001)       nX =  192 ; /* Total domain size in X ( = nPx*nSx*sNx ) */
(PID.TID 0000.0001)       nY =   32 ; /* Total domain size in Y ( = nPy*nSy*sNy ) */
(PID.TID 0000.0001)   nTiles =    6 ; /* Total no. tiles per process ( = nSx*nSy ) */
(PID.TID 0000.0001)   nProcs =    1 ; /* Total no. processes ( = nPx*nPy ) */
(PID.TID 0000.0001) nThreads =    1 ; /* Total no. threads per process ( = nTx*nTy ) */
(PID.TID 0000.0001) usingMPI =    F ; /* Flag used to control whether MPI is in use */
(PID.TID 0000.0001)                   /*  note: To execute a program with MPI calls */
(PID.TID 0000.0001)                   /*  it must be launched appropriately e.g     */
(PID.TID 0000.0001)                   /*  "mpirun -np 64 ......"                    */
(PID.TID 0000.0001) useCoupler=   F ; /* Flag used to control communications with */
(PID.TID 0000.0001)                   /*  other model components, through a coupler */
(PID.TID 0000.0001) 
(PID.TID 0000.0001) // ======================================================
(PID.TID 0000.0001) // Mapping of tiles to threads
(PID.TID 0000.0001) // ======================================================
(PID.TID 0000.0001) // -o- Thread   1, tiles (   1:   6,   1:   1)
(PID.TID 0000.0001) 
(PID.TID 0000.0001) // ======================================================
(PID.TID 0000.0001) // Tile <-> Tile connectvity table
(PID.TID 0000.0001) // ======================================================
(PID.TID 0000.0001) // Tile number: 000001 (process no. = 000001)
(PID.TID 0000.0001) //        WEST: Tile = 000006, Process = 000001, Comm = put
(PID.TID 0000.0001) //                bi = 000006, bj = 000001
(PID.TID 0000.0001) //        EAST: Tile = 000002, Process = 000001, Comm = put
(PID.TID 0000.0001) //                bi = 000002, bj = 000001
(PID.TID 0000.0001) //       SOUTH: Tile = 000001, Process = 000001, Comm = put
(PID.TID 0000.0001) //                bi = 000001, bj = 000001
(PID.TID 0000.0001) //       NORTH: Tile = 000001, Process = 000001, Comm = put
(PID.TID 0000.0001) //                bi = 000001, bj = 000001
(PID.TID 0000.0001) // Tile number: 000002 (process no. = 000001)
(PID.TID 0000.0001) //        WEST: Tile = 000001, Process = 000001, Comm = put
(PID.TID 0000.0001) //                bi = 000001, bj = 000001
(PID.TID 0000.0001) //        EAST: Tile = 000003, Process = 000001, Comm = put
(PID.TID 0000.0001) //                bi = 000003, bj = 000001
(PID.TID 0000.0001) //       SOUTH: Tile = 000002, Process = 000001, Comm = put
(PID.TID 0000.0001) //                bi = 000002, bj = 000001
(PID.TID 0000.0001) //       NORTH: Tile = 000002, Process = 000001, Comm = put
(PID.TID 0000.0001) //                bi = 000002, bj = 000001
(PID.TID 0000.0001) // Tile number: 000003 (process no. = 000001)
(PID.TID 0000.0001) //        WEST: Tile = 000002, Process = 000001, Comm = put
(PID.TID 0000.0001) //                bi = 000002, bj = 000001
(PID.TID 0000.0001) //        EAST: Tile = 000004, Process = 000001, Comm = put
(PID.TID 0000.0001) //                bi = 000004, bj = 000001
(PID.TID 0000.0001) //       SOUTH: Tile = 000003, Process = 000001, Comm = put
(PID.TID 0000.0001) //                bi = 000003, bj = 000001
(PID.TID 0000.0001) //       NORTH: Tile = 000003, Process = 000001, Comm = put
(PID.TID 0000.0001) //                bi = 000003, bj = 000001
(PID.TID 0000.0001) // Tile number: 000004 (process no. = 000001)
(PID.TID 0000.0001) //        WEST: Tile = 000003, Process = 000001, Comm = put
(PID.TID 0000.0001) //                bi = 000003, bj = 000001
(PID.TID 0000.0001) //        EAST: Tile = 000005, Process = 000001, Comm = put
(PID.TID 0000.0001) //                bi = 000005, bj = 000001
(PID.TID 0000.0001) //       SOUTH: Tile = 000004, Process = 000001, Comm = put
(PID.TID 0000.0001) //                bi = 000004, bj = 000001
(PID.TID 0000.0001) //       NORTH: Tile = 000004, Process = 000001, Comm = put
(PID.TID 0000.0001) //                bi = 000004, bj = 000001
(PID.TID 0000.0001) // Tile number: 000005 (process no. = 000001)
(PID.TID 0000.0001) //        WEST: Tile = 000004, Process = 000001, Comm = put
(PID.TID 0000.0001) //                bi = 000004, bj = 000001
(PID.TID 0000.0001) //        EAST: Tile = 000006, Process = 000001, Comm = put
(PID.TID 0000.0001) //                bi = 000006, bj = 000001
(PID.TID 0000.0001) //       SOUTH: Tile = 000005, Process = 000001, Comm = put
(PID.TID 0000.0001) //                bi = 000005, bj = 000001
(PID.TID 0000.0001) //       NORTH: Tile = 000005, Process = 000001, Comm = put
(PID.TID 0000.0001) //                bi = 000005, bj = 000001
(PID.TID 0000.0001) // Tile number: 000006 (process no. = 000001)
(PID.TID 0000.0001) //        WEST: Tile = 000005, Process = 000001, Comm = put
(PID.TID 0000.0001) //                bi = 000005, bj = 000001
(PID.TID 0000.0001) //        EAST: Tile = 000001, Process = 000001, Comm = put
(PID.TID 0000.0001) //                bi = 000001, bj = 000001
(PID.TID 0000.0001) //       SOUTH: Tile = 000006, Process = 000001, Comm = put
(PID.TID 0000.0001) //                bi = 000006, bj = 000001
(PID.TID 0000.0001) //       NORTH: Tile = 000006, Process = 000001, Comm = put
(PID.TID 0000.0001) //                bi = 000006, bj = 000001
(PID.TID 0000.0001) 
(PID.TID 0000.0001) // =======================================================
(PID.TID 0000.0001) // Model parameter file "data"
(PID.TID 0000.0001) // =======================================================
(PID.TID 0000.0001) ># ====================
(PID.TID 0000.0001) ># | Model parameters |
(PID.TID 0000.0001) ># ====================
(PID.TID 0000.0001) >#
(PID.TID 0000.0001) ># Continuous equation parameters
(PID.TID 0000.0001) > &PARM01
(PID.TID 0000.0001) > tRef=15*20.,
(PID.TID 0000.0001) > sRef=15*35.,
(PID.TID 0000.0001) > viscAh =3.E5,
(PID.TID 0000.0001) > viscAr =1.E-3,
(PID.TID 0000.0001) > diffKhT=0.,
(PID.TID 0000.0001) > diffK4T=0.,
(PID.TID 0000.0001) > diffKrT=3.E-5,
(PID.TID 0000.0001) > diffKhS=0.,
(PID.TID 0000.0001) > diffK4S=0.,
(PID.TID 0000.0001) > diffKrS=3.E-5,
(PID.TID 0000.0001) > ivdc_kappa=10.,
(PID.TID 0000.0001) > implicitDiffusion=.TRUE.,
(PID.TID 0000.0001) > gravity=9.81,
(PID.TID 0000.0001) > rhonil=1035.,
(PID.TID 0000.0001) > eosType='JMD95Z',
(PID.TID 0000.0001) >#staggerTimeStep=.TRUE.,
(PID.TID 0000.0001) > vectorInvariantMomentum=.TRUE.,
(PID.TID 0000.0001) > implicitFreeSurface=.TRUE.,
(PID.TID 0000.0001) > exactConserv=.TRUE.,
(PID.TID 0000.0001) > select_rStar=2,
(PID.TID 0000.0001) > nonlinFreeSurf=4,
(PID.TID 0000.0001) > hFacInf=0.2,
(PID.TID 0000.0001) > hFacSup=2.0,
(PID.TID 0000.0001) > useRealFreshWaterFlux=.TRUE.,
(PID.TID 0000.0001) > allowFreezing=.TRUE.,
(PID.TID 0000.0001) > hFacMin=.1,
(PID.TID 0000.0001) > hFacMinDr=20.,
(PID.TID 0000.0001) > readBinaryPrec=64,
(PID.TID 0000.0001) > &
(PID.TID 0000.0001) >
(PID.TID 0000.0001) ># Elliptic solver parameters
(PID.TID 0000.0001) > &PARM02
(PID.TID 0000.0001) > cg2dMaxIters=200,
(PID.TID 0000.0001) >#cg2dTargetResidual=1.E-9,
(PID.TID 0000.0001) > cg2dTargetResWunit=1.E-14,
(PID.TID 0000.0001) > &
(PID.TID 0000.0001) >
(PID.TID 0000.0001) ># Time stepping parameters
(PID.TID 0000.0001) > &PARM03
(PID.TID 0000.0001) > nIter0=72000,
(PID.TID 0000.0001) > nTimeSteps=20,
(PID.TID 0000.0001) > deltaTmom   =1200.,
(PID.TID 0000.0001) > deltaTtracer=86400.,
(PID.TID 0000.0001) > deltaTfreesurf=86400.,
(PID.TID 0000.0001) > deltaTClock =86400.,
(PID.TID 0000.0001) > abEps = 0.1,
(PID.TID 0000.0001) > forcing_In_AB=.FALSE.,
(PID.TID 0000.0001) > pChkptFreq  =1728000.,
(PID.TID 0000.0001) >#chkptFreq   =311040000.,
(PID.TID 0000.0001) > taveFreq    =1244160000.,
(PID.TID 0000.0001) > dumpFreq    =622080000.,
(PID.TID 0000.0001) > monitorFreq =31104000.,
(PID.TID 0000.0001) > periodicExternalForcing=.TRUE.,
(PID.TID 0000.0001) > externForcingPeriod=2592000.,
(PID.TID 0000.0001) > externForcingCycle=31104000.,
(PID.TID 0000.0001) ># 2 months restoring timescale for temperature
(PID.TID 0000.0001) > tauThetaClimRelax = 5184000.,
(PID.TID 0000.0001) ># 2yrs restoring timescale for salinity
(PID.TID 0000.0001) > tauSaltClimRelax = 62208000.,
(PID.TID 0000.0001) > monitorFreq =1.,
(PID.TID 0000.0001) > &
(PID.TID 0000.0001) >
(PID.TID 0000.0001) ># Gridding parameters
(PID.TID 0000.0001) > &PARM04
(PID.TID 0000.0001) > usingCartesianGrid=.FALSE.,
(PID.TID 0000.0001) > usingSphericalPolarGrid=.FALSE.,
(PID.TID 0000.0001) > usingCurvilinearGrid=.TRUE.,
(PID.TID 0000.0001) > delR= 50., 70., 100., 140., 190.,
(PID.TID 0000.0001) >       240., 290., 340., 390., 440.,
(PID.TID 0000.0001) >       490., 540., 590., 640., 690.,
(PID.TID 0000.0001) > &
(PID.TID 0000.0001) >
(PID.TID 0000.0001) ># Input datasets
(PID.TID 0000.0001) > &PARM05
(PID.TID 0000.0001) > bathyFile      ='bathy_Hmin50.bin',
(PID.TID 0000.0001) > hydrogThetaFile='lev_T_cs_15k.bin',
(PID.TID 0000.0001) > hydrogSaltFile ='lev_S_cs_15k.bin',
(PID.TID 0000.0001) > zonalWindFile  ='trenberth_taux.bin',
(PID.TID 0000.0001) > meridWindFile  ='trenberth_tauy.bin',
(PID.TID 0000.0001) > thetaClimFile  ='lev_surfT_cs_12m.bin',
(PID.TID 0000.0001) > saltClimFile   ='lev_surfS_cs_12m.bin',
(PID.TID 0000.0001) > surfQFile      ='shiQnet_cs32.bin',
(PID.TID 0000.0001) > EmPmRFile      ='shiEmPR_cs32.bin',
(PID.TID 0000.0001) > &
(PID.TID 0000.0001) 
(PID.TID 0000.0001) S/R INI_PARMS ; read PARM01 : OK
(PID.TID 0000.0001) S/R INI_PARMS ; read PARM02 : OK
(PID.TID 0000.0001) S/R INI_PARMS ; read PARM03 : OK
(PID.TID 0000.0001) S/R INI_PARMS ; read PARM04 : OK
(PID.TID 0000.0001) S/R INI_PARMS ; read PARM05 : OK
(PID.TID 0000.0001)  MDSREADFIELD: opening global file: LONC.bin
(PID.TID 0000.0001)  MDSREADFIELD: opening global file: LATC.bin
(PID.TID 0000.0001)  MDSREADFIELD: opening global file: DXF.bin
(PID.TID 0000.0001)  MDSREADFIELD: opening global file: DYF.bin
(PID.TID 0000.0001)  MDSREADFIELD: opening global file: RA.bin
(PID.TID 0000.0001)  MDSREADFIELD: opening global file: LONG.bin
(PID.TID 0000.0001)  MDSREADFIELD: opening global file: LATG.bin
(PID.TID 0000.0001)  MDSREADFIELD: opening global file: DXV.bin
(PID.TID 0000.0001)  MDSREADFIELD: opening global file: DYU.bin
(PID.TID 0000.0001)  MDSREADFIELD: opening global file: RAZ.bin
(PID.TID 0000.0001)  MDSREADFIELD: opening global file: DXC.bin
(PID.TID 0000.0001)  MDSREADFIELD: opening global file: DYC.bin
(PID.TID 0000.0001)  MDSREADFIELD: opening global file: RAW.bin
(PID.TID 0000.0001)  MDSREADFIELD: opening global file: RAS.bin
(PID.TID 0000.0001)  MDSREADFIELD: opening global file: DXG.bin
(PID.TID 0000.0001)  MDSREADFIELD: opening global file: DYG.bin
(PID.TID 0000.0001) %MON XC_max                       =   1.7854351589505E+02
(PID.TID 0000.0001) %MON XC_min                       =  -1.7854351589505E+02
(PID.TID 0000.0001) %MON XC_mean                      =   5.2180482157382E-15
(PID.TID 0000.0001) %MON XC_sd                        =   1.0355545336287E+02
(PID.TID 0000.0001) %MON XG_max                       =   1.8000000000000E+02
(PID.TID 0000.0001) %MON XG_min                       =  -1.7708797161002E+02
(PID.TID 0000.0001) %MON XG_mean                      =   1.8796250616675E+00
(PID.TID 0000.0001) %MON XG_sd                        =   1.0410625309932E+02
(PID.TID 0000.0001) %MON DXC_max                      =   3.2375185836900E+05
(PID.TID 0000.0001) %MON DXC_min                      =   1.1142031410131E+05
(PID.TID 0000.0001) %MON DXC_mean                     =   2.8605689051214E+05
(PID.TID 0000.0001) %MON DXC_sd                       =   3.4042087138252E+04
(PID.TID 0000.0001) %MON DXF_max                      =   3.2369947500827E+05
(PID.TID 0000.0001) %MON DXF_min                      =   1.2020820513318E+05
(PID.TID 0000.0001) %MON DXF_mean                     =   2.8605437324820E+05
(PID.TID 0000.0001) %MON DXF_sd                       =   3.4050524252539E+04
(PID.TID 0000.0001) %MON DXG_max                      =   3.2375195872773E+05
(PID.TID 0000.0001) %MON DXG_min                      =   1.0098378008791E+05
(PID.TID 0000.0001) %MON DXG_mean                     =   2.8603818508931E+05
(PID.TID 0000.0001) %MON DXG_sd                       =   3.4140406908005E+04
(PID.TID 0000.0001) %MON DXV_max                      =   3.2380418162750E+05
(PID.TID 0000.0001) %MON DXV_min                      =   8.0152299824136E+04
(PID.TID 0000.0001) %MON DXV_mean                     =   2.8603970633619E+05
(PID.TID 0000.0001) %MON DXV_sd                       =   3.4145142117723E+04
(PID.TID 0000.0001) %MON YC_max                       =   8.7940663871962E+01
(PID.TID 0000.0001) %MON YC_min                       =  -8.7940663871962E+01
(PID.TID 0000.0001) %MON YC_mean                      =   3.7701323544563E-16
(PID.TID 0000.0001) %MON YC_sd                        =   3.8676242969072E+01
(PID.TID 0000.0001) %MON YG_max                       =   9.0000000000000E+01
(PID.TID 0000.0001) %MON YG_min                       =  -9.0000000000000E+01
(PID.TID 0000.0001) %MON YG_mean                      =  -1.2011668255785E-15
(PID.TID 0000.0001) %MON YG_sd                        =   3.9086186579984E+01
(PID.TID 0000.0001) %MON DYC_max                      =   3.2375185836900E+05
(PID.TID 0000.0001) %MON DYC_min                      =   1.1142031410131E+05
(PID.TID 0000.0001) %MON DYC_mean                     =   2.8605689051214E+05
(PID.TID 0000.0001) %MON DYC_sd                       =   3.4042087138252E+04
(PID.TID 0000.0001) %MON DYF_max                      =   3.2369947500827E+05
(PID.TID 0000.0001) %MON DYF_min                      =   1.2020820513318E+05
(PID.TID 0000.0001) %MON DYF_mean                     =   2.8605437324820E+05
(PID.TID 0000.0001) %MON DYF_sd                       =   3.4050524252539E+04
(PID.TID 0000.0001) %MON DYG_max                      =   3.2375195872773E+05
(PID.TID 0000.0001) %MON DYG_min                      =   1.0098378008791E+05
(PID.TID 0000.0001) %MON DYG_mean                     =   2.8603818508931E+05
(PID.TID 0000.0001) %MON DYG_sd                       =   3.4140406908005E+04
(PID.TID 0000.0001) %MON DYU_max                      =   3.2380418162750E+05
(PID.TID 0000.0001) %MON DYU_min                      =   8.0152299824136E+04
(PID.TID 0000.0001) %MON DYU_mean                     =   2.8603970633619E+05
(PID.TID 0000.0001) %MON DYU_sd                       =   3.4145142117723E+04
(PID.TID 0000.0001) %MON RA_max                       =   1.0479260248419E+11
(PID.TID 0000.0001) %MON RA_min                       =   1.4019007022556E+10
(PID.TID 0000.0001) %MON RA_mean                      =   8.2992246709265E+10
(PID.TID 0000.0001) %MON RA_sd                        =   1.7509089299457E+10
(PID.TID 0000.0001) %MON RAW_max                      =   1.0480965274559E+11
(PID.TID 0000.0001) %MON RAW_min                      =   1.2166903467143E+10
(PID.TID 0000.0001) %MON RAW_mean                     =   8.2992246709235E+10
(PID.TID 0000.0001) %MON RAW_sd                       =   1.7481917919657E+10
(PID.TID 0000.0001) %MON RAS_max                      =   1.0480965274559E+11
(PID.TID 0000.0001) %MON RAS_min                      =   1.2166903467143E+10
(PID.TID 0000.0001) %MON RAS_mean                     =   8.2992246709235E+10
(PID.TID 0000.0001) %MON RAS_sd                       =   1.7481917919657E+10
(PID.TID 0000.0001) %MON RAZ_max                      =   1.0484349334619E+11
(PID.TID 0000.0001) %MON RAZ_min                      =   8.8317900612505E+09
(PID.TID 0000.0001) %MON RAZ_mean                     =   8.2992246709234E+10
(PID.TID 0000.0001) %MON RAZ_sd                       =   1.7482297311044E+10
(PID.TID 0000.0001)  MDSREADFIELD: opening global file: bathy_Hmin50.bin
(PID.TID 0000.0001) // =======================================================
(PID.TID 0000.0001) // Field Model R_low (ini_masks_etc) at iteration          1
(PID.TID 0000.0001) // CMIN =         -5.200000000000000E+03
(PID.TID 0000.0001) // CMAX =         -5.000000000000000E+01
(PID.TID 0000.0001) // CINT =          1.907407407407407E+02
(PID.TID 0000.0001) // SYMBOLS (CMIN->CMAX): -abcdefghijklmnopqrstuvwxyz+
(PID.TID 0000.0001) //                  0.0: .
(PID.TID 0000.0001) // RANGE I (Lo:Hi:Step):(  -1: 194:   1)
(PID.TID 0000.0001) // RANGE J (Lo:Hi:Step):(  34:  -1:  -1)
(PID.TID 0000.0001) // RANGE K (Lo:Hi:Step):(   1:   1:   1)
(PID.TID 0000.0001) // =======================================================
(PID.TID 0000.0001) K =   1
(PID.TID 0000.0001) //                I=8       I=18      I=28      I=34      I=44      I=54      I=64      I=70      I=80      I=90      I=96      I=106     I=116     I=126     I=132     I=142     I=152     I=162     I=168     I=178     I=188
(PID.TID 0000.0001) // |--J--|*01234567|901234567|901234567|901234123|567890123|567890123|567890123|563456789|123456789|123456789|123456785|789012345|789012345|789012345|789078901|345678901|345678901|345678901|901234567|901234567|901234567|901234
(PID.TID 0000.0001) //     34 ..a-abcehjnldcclz+........spps...................................vkqn+....cbba--aabfu+..............hcbaaa....aaccdccbaaabbddddccdffffghfeeeee....efilhfcaaaacgceei.......zomggfca....ecbbccddefilihecbaacbaajfega-aes..
(PID.TID 0000.0001) //     33 ..bbccceiomkfdbbc+.......+s......................................xsrxz....db-----adu+...............hcbaa-....-accddba--bbbddddccdfffhhgfeeddc....dfgikhfffdfgccffw........zohhgeb....baaaaaccdfhlhfefdcccaabjefbaaafo..
(PID.TID 0000.0001) //     32 bddefhhkqqlgfaakqz..v.+..+.....................................++..u+...fdba----adu+................kdcaaa-aaa-accdcb---bbbcdddddefffggfeeedccccbbdcdfgghhiihcbeiw.........+ynjgebaaebaaaa-aacccfikkhecccbbbaaabaadfklnq
(PID.TID 0000.0001) //     31 bcffijnpnqneaaat..umrr+s.z.....................................+++++.ztsfeb--dfdfu+................+lkdca--aa--abcccb---bbbbddddeffflhfeeeecbbbb-abbacbcdceffbbfw+..........++ujfbaafbaaa----aacffiljgfffcca--adfikkiihh
(PID.TID 0000.0001) //     30 adgillkkkifcadcx.ymmqzqikvnnps.................................+++++wmegifcacdlqx+++...............mligea---a---abbbb---abaaddddeedkmeddefdbbbaa---b--aaaaabaabm..............+viba-iba-------acdefinmlgiieb-chnnnmlmlgf
(PID.TID 0000.0001) //     29 cfiljigfjd--efdozy...+ximpnnuz..................................+++yqddhjhcbbchz+......++.........+mmhffc---c----aaba------acdddcbcineddgdbaaa--d--a------aa-bfz...............+qe--qe---aa---aedeegknmlgiigcdfhpokkimlf
(PID.TID 0000.0001) //     28 bgkhfcccea-bdei........t........................................++zwgfcfnhccbbhwwy.....+++........+njfeed---d-----aa-------abddcabcnfddegcaaa---f------------dk+................+ja-+ja------bffdddehfd--bedaacfhpnligii
(PID.TID 0000.0001) //     27 cghfbaaaa-achmy..........................+++....................++vnbbbcpkeeecflmqxy....++........+lhfeecc--cc------------aaadcbabcfhddccba-----d-----------irw.................++e-++e-----mhmijddda--------ahhfiokhede
(PID.TID 0000.0001) //     26 dhfca-----bfiv...........................++sy...................+tq-fdbbnqiheddefhiksz++++........zkhfdccb--cb------------aabdcaaaacfddbca------fa-abb-----vvv...................+wa.+wa---mlmkijhc----------cjjffiheb-a
(PID.TID 0000.0001) //     25 chfa------ch+..................w...........njo+................+x-----bcqqojfefiiiijmy.++.........zkhfdbaa--aa-------daa---acccaaaacccca--------udaabbb----tei...................++q.++qdeqnghiljcaaaaidaa----beedeeca--
(PID.TID 0000.0001) //     24 eifa--acbcei...................w...........likn+.....++.....++znpa----bbnlmnjhinlksssw............qhfeca------------addc--aeffaaaaaaccb-a----a--+udbbaba---ven....................++..++xywnfgllcbbabegkecba----ddddcaac
(PID.TID 0000.0001) //     23 fida-aabchjk...................zz...z.....nhhijz....tqq.....+ujgzgd---abegklkkknols..xuu..........zgfdba------------bcd---affaaadffabbb-----aa-b.+ufb-----l.gx...........s.........+...++zzkfilfccccoz..ulkcd---bccnfddd
(PID.TID 0000.0001) //     22 fhfaa---bfgi....................zz..zz..rnjffggm...nlmn+....+sffzya--aabaffdfhimrmp...yuu.++.......zudba------------adc---dda-adffe-aa--------aa..+ufc-baaqvhh..........dcfeeh..........++zggqvifefhz......zobbaccfwuffe
(PID.TID 0000.0001) //     21 bcgca----abe.....................yss.ysstlgeeeeoz..ijklt+....lfjzzf---adaadcehllotq....yy+++zzs.....+zcba---a-------cdd--aaa----df------------aa...+upjdcy.vohq.......+idcdfeeefwz..wz....+hhn.vklox.........gdccfjwrigf
(PID.TID 0000.0001) //     20 bbcgfcaa-aae+...........................lcgfdddhq.+hiilnz++.+oquxyz--adgaabcfmtooyxz......+yuiiy....++gb------------ddcca-a-----acbaa------bbaaa......ywxy.lulo.lv...kcdgddffefffilyfilyx+fffk.+xyyy.........mgeimvskjkl
(PID.TID 0000.0001) //     19 feccdghfeegcbt..........................aafifccgnrzgghjry.+++sr+lq.--edftkblwnnsp.vv......skhggt...+++t-------------bdaf---------edd-------adlaa.........vnhzy.tllqiedccdhggfggffiigfiiggfcbdgy..yz..........xigqophijkk
(PID.TID 0000.0001) //     18 wifedfkhfegbbcivlqfoz..............j...jaacfihggokeeffgt..++++..hhlfdedd.qcz+.zwxtsttz..ysrkhot++++++zig------------b--f---------egqqqaa----frb-.......+kkrhw.vqmlnieddcdehgggffgigegigedbaaceiy.............zilrddefikk
(PID.TID 0000.0001) //     17 +wfeefikhgcbbccaaacgn.............ic..icaaccfihfoedddeedy..++...nnqwgfee.z++..+zsjjllllljllpjos+++.+zhhi---------e-----ea--------foqqoqqo--hlwge.......+nk+..xiioonhfefddegihhghigfdigfdbaaabdgx..............nheddefikl
(PID.TID 0000.0001) //     16 ..wiheddeccdfhfbabdfl............jdb.jdbaddddgifkccccdccd+.++..++ynvz.tku....++zyslllllkhggkmpy++...ihhi---------ea---feb-----a-acnoohfghknvmwnu........qhu..hhhkojgffgeefghihhiieedieedbaaabcdy..............ygddeghilj
(PID.TID 0000.0001) //     15 ....ylea--acfihebcbbes..........sfcbsfcbbngfffigcaaabdbcac+.+++++zgmpx..m....++..zslwz.yhhhhnz+++...rhgc--------ab----ige----acaaalllkddfiy..ysw........thk.xgghiligfghfefhhhhiiheedheedcdbbabdmz.............zfdeghikki
(PID.TID 0000.0001) //     14 ......c---acgkhdcc--di..........ofddofddchohffikaaaaabaaa-aw+.+ysnggox++rv..........yzzzzrjil+++....qhgd---------a-----i---cccdeabkklldinqssy..x.........+y.uhghikihgfghefgihhhgeeeeeeeeeddbaadhw.............nedeghjjhf
(PID.TID 0000.0001) //     13 .....+b----cfkhec---afz.........nhfdnhfdffholghkaaaaaba-a---flkkuswyy+++r...........zzzzz++ry++......yd------------------aeecdeidfkkqnqlmqquukqq............iihiijjhfefgefhjihiffgggfgggffecaabelx...........zjecehijhfe
(PID.TID 0000.0001) //     12 .....ec----chjhec---ag..........skiqskiqddeiiiifaaabae--a---dd--iu+++.++++..........+z+++++.+++....++.s----------------a-ceccdejhlllkqlkklssiccd...........wjkkkjjjigeefffgjiiighiiihiiihhhdaabdffghtxx......mfccehjiffd
(PID.TID 0000.0001) //     11 ....pdca--achlheba--ai..........nkn.nkn.fdemijidaaaabi-------a--q+....++s...........+++++..........+yyza--------b-----a--ccccddkhieekkossssfbbbb..........njjijhhihijhgggggjjjjijkkkjkkkkjjhcaacddeegpy.....xfdccdhjgfdd
(PID.TID 0000.0001) //     10 ....wfdb--achlhea---an.........uos..os..dcemikkfdcaabi-------equ+..................................zyvuq--------cc----a---dcfhkopqjeissrnpfbbccc........zslihhigghgijjihhhhkllkkkkkkkkkkjkkkedccdeeeeipz..zwhccbcdhgfddc
(PID.TID 0000.0001) //      9 ....vgec---bfikca--cjl+.......+nnv.+nv.+ccffhkkiddaadha-----as++........z++........................zxuuk----------a---a----djmqrrnlllsoiddcccccd.......+zjijhfgfggffhjkkkiillljihhghhhghgihighdeeffgghimnnjgecbbcdgfeccb
(PID.TID 0000.0001) //      8 ...zleca---afjfca--hdfz.......vkky.jky.jceddefijffdddhb--a-afv............ss.........................+yku---u--------------ejnpqqnninnritqdccchk......wihgghgeffffeefhijkjkljiigeeffeeffefffhjhhikkklljklmhffeeeggfdcbaa
(PID.TID 0000.0001) //      7 .+zohec--abcfkhecbchbdx.......qiht.fht.faaaabdgijgfededcdcb-f+.............pz.........................+zu---u--------------edefqgqddsz+......+yu+....tiggfggfeeeefeeefiiiijkiihhedddeddddddddjjllliijhfkmmkkjjhijgdcba--
(PID.TID 0000.0001) //      6 +yomfddcaabefkifdchaadt......uqdeisceisc----dfefgifffkklldc--v.............pp.........................v.x---x---------a----fbbpqgzenx+........zdlkhhfffffffgfeeeeeeeefhhhhijihhffddcfddcbbbbdhhiihedddb-cfhhhjjjieca----
(PID.TID 0000.0001) //      5 +nhgffkghccfhkhffgdaackz....uoibcimlcimlaaacfbddfjjhijeehf-a-c.............su.........................qk.yi-.yi-------gha-fjddqs+xkrz.........q-kdccdeeeeeeedddedddddgghhhhjhhgffcbbfcbbaaaaddfegecca----dfeefhfgdb-----
(PID.TID 0000.0001) //      4 ujhgfllfhdffhkfffca-aady...llnabdopfdopfcbdgdbcdehlihgfddc--ms........................................okn.zdn.zd---eciiiicfkeeqy.ysz..........n-dcbbdeddedcdcccdddcddffggghiggfffdbafdbaa---acdcccba--abvfedeffdcca----b
(PID.TID 0000.0001) //      3 jggfcceeffffjlkjgaa---bfvheeln-aesphesphfdhgabddeflihhgfecbaaayq+++++.................................kqnz.vnz.vtpkllgdccfkkkkk..++..........+g-caaadcdddcbbbbcdddcccdffffghgffffdcafdcaa----abcaaaa-acxxmecdjmdbba----r
(PID.TID 0000.0001) //      2 feecbbccddefilihecbaacbaajfega-aesqhesqhffiea-cdeflkkljifeddcba---bry+...............................vkqn+.sn+.sghfcbcbbbdgfdek.++++.........+l-aaaaccdccbaaabbddddccdffffghfeeeeecbeecba------baaaa-euwxqdbcdkud-----sy
(PID.TID 0000.0001) //      1 bbbaaaaaccdfhlhfefdcccaabjefbaaafonhfonhglid--adfgkkkklkhffddca-----s+++.............................xsrxz.txz.tedcbbbbaaadddet.++++.........+l--a-accddba--bbbddddccdfffhhgfeeddccbdccba-------aaaabgns.qcbcchyzqngll++
(PID.TID 0000.0001) //      0 ..aaaa-aacccfikkhecccbbbaaabaadfkl....lilmgebaadfijjiiikjhffdcba-----l.............................++..u+......zmdfbd---a-aeef.xx+..........++....-accdcb---bbbcdddddefffggfeeedcc....cbba----aa--alrwwy.kcbccc+...+++..
(PID.TID 0000.0001) //     -1 ..aaa----aacffiljgfffcca--adfikkii....kimiiheccfurkiffhijjigfecb-----l.............................+++++.z....+.wqgbf-------dgzpoy+........+ys....-abcccb---bbbbddddeffflhfeeeecbb....cbbaa----a--bdflm.yuibbcc.........
(PID.TID 0000.0001) // =======================================================
(PID.TID 0000.0001) // END OF FIELD                                          =
(PID.TID 0000.0001) // =======================================================
(PID.TID 0000.0001) 
(PID.TID 0000.0001) // =======================================================
(PID.TID 0000.0001) // Field Model Ro_surf (ini_masks_etc) at iteration          1
(PID.TID 0000.0001) // CMIN =         -7.105427357601002E-15
(PID.TID 0000.0001) // CMAX =         -7.105427357601002E-15
(PID.TID 0000.0001) // CINT =          0.000000000000000E+00
(PID.TID 0000.0001) // SYMBOLS (CMIN->CMAX): -abcdefghijklmnopqrstuvwxyz+
(PID.TID 0000.0001) //                  0.0: .
(PID.TID 0000.0001) // RANGE I (Lo:Hi:Step):(  -1: 194:   1)
(PID.TID 0000.0001) // RANGE J (Lo:Hi:Step):(  34:  -1:  -1)
(PID.TID 0000.0001) // RANGE K (Lo:Hi:Step):(   1:   1:   1)
(PID.TID 0000.0001) // =======================================================
(PID.TID 0000.0001) K =   1
(PID.TID 0000.0001) //                I=8       I=18      I=28      I=34      I=44      I=54      I=64      I=70      I=80      I=90      I=96      I=106     I=116     I=126     I=132     I=142     I=152     I=162     I=168     I=178     I=188
(PID.TID 0000.0001) // |--J--|*01234567|901234567|901234567|901234123|567890123|567890123|567890123|563456789|123456789|123456789|123456785|789012345|789012345|789012345|789078901|345678901|345678901|345678901|901234567|901234567|901234567|901234
(PID.TID 0000.0001) //     34 ........................................................................................................................................................................................................................
(PID.TID 0000.0001) //     33 ........................................................................................................................................................................................................................
(PID.TID 0000.0001) //     32 ........................................................................................................................................................................................................................
(PID.TID 0000.0001) //     31 ........................................................................................................................................................................................................................
(PID.TID 0000.0001) //     30 ........................................................................................................................................................................................................................
(PID.TID 0000.0001) //     29 ................................................................................-.......................................................................................................................................
(PID.TID 0000.0001) //     28 ........................................................................................................................................................................................................................
(PID.TID 0000.0001) //     27 .................................................................-......................................................................................................................................................
(PID.TID 0000.0001) //     26 ........................................................................................................................................................................................................................
(PID.TID 0000.0001) //     25 ........................................................................................................................................................................................................................
(PID.TID 0000.0001) //     24 ........................................................................................................................................................................................................................
(PID.TID 0000.0001) //     23 ........................................................................................................................................................................................................................
(PID.TID 0000.0001) //     22 ........................................................................................................................................................................................................................
(PID.TID 0000.0001) //     21 ........................................................................................................................................................................................................................
(PID.TID 0000.0001) //     20 ............................................................-...........................................................................................................................................................
(PID.TID 0000.0001) //     19 ........................................................................................................................................................................................................................
(PID.TID 0000.0001) //     18 ........................................................................................................................................................................................................................
(PID.TID 0000.0001) //     17 ........................................................................................................................................................................................................................
(PID.TID 0000.0001) //     16 ........................................................................................................................................................................................................................
(PID.TID 0000.0001) //     15 ........................................................................................................................................................................................................................
(PID.TID 0000.0001) //     14 ........................................................................................................................................................................................................................
(PID.TID 0000.0001) //     13 ........................................................................................................................................................................................................................
(PID.TID 0000.0001) //     12 ........................................................................................................................................................................................................................
(PID.TID 0000.0001) //     11 ........................................................................................................................................................................................................................
(PID.TID 0000.0001) //     10 ........................................................................................................................................................................................................................
(PID.TID 0000.0001) //      9 ..............................-....-...-................................................................................................................................................................................
(PID.TID 0000.0001) //      8 ........................................................................................................................................................................................................................
(PID.TID 0000.0001) //      7 ........................................................................................................................................................................................................................
(PID.TID 0000.0001) //      6 ........................................................................................................................................................................................................................
(PID.TID 0000.0001) //      5 ........................................................................................................................................................................................................................
(PID.TID 0000.0001) //      4 ........................................................................................................................................................................................................................
(PID.TID 0000.0001) //      3 ........................................................................................................................................................................................................................
(PID.TID 0000.0001) //      2 ........................................................................................................................................................................................................................
(PID.TID 0000.0001) //      1 ........................................................................................................................................................................................................................
(PID.TID 0000.0001) //      0 ........................................................................................................................................................................................................................
(PID.TID 0000.0001) //     -1 ........................................................................................................................................................................................................................
(PID.TID 0000.0001) // =======================================================
(PID.TID 0000.0001) // END OF FIELD                                          =
(PID.TID 0000.0001) // =======================================================
(PID.TID 0000.0001) 
(PID.TID 0000.0001) // =======================================================
(PID.TID 0000.0001) // Field hFacC at iteration          1
(PID.TID 0000.0001) // CMIN =          1.000000000000000E+00
(PID.TID 0000.0001) // CMAX =          1.000000000000000E+00
(PID.TID 0000.0001) // CINT =          0.000000000000000E+00
(PID.TID 0000.0001) // SYMBOLS (CMIN->CMAX): -abcdefghijklmnopqrstuvwxyz+
(PID.TID 0000.0001) //                  0.0: .
(PID.TID 0000.0001) // RANGE I (Lo:Hi:Step):(  -1: 194:   1)
(PID.TID 0000.0001) // RANGE J (Lo:Hi:Step):(  34:  -1:  -1)
(PID.TID 0000.0001) // RANGE K (Lo:Hi:Step):(   1:   1:   1)
(PID.TID 0000.0001) // =======================================================
(PID.TID 0000.0001) K =   1
(PID.TID 0000.0001) //                I=8       I=18      I=28      I=34      I=44      I=54      I=64      I=70      I=80      I=90      I=96      I=106     I=116     I=126     I=132     I=142     I=152     I=162     I=168     I=178     I=188
(PID.TID 0000.0001) // |--J--|*01234567|901234567|901234567|901234123|567890123|567890123|567890123|563456789|123456789|123456789|123456785|789012345|789012345|789012345|789078901|345678901|345678901|345678901|901234567|901234567|901234567|901234
(PID.TID 0000.0001) //     34 ..----------------........----...................................-----....------------..............------....--------------------------------....-----------------.......--------....--------------------------------..
(PID.TID 0000.0001) //     33 ..----------------.......--......................................-----....-----------...............------....--------------------------------....-----------------........-------....--------------------------------..
(PID.TID 0000.0001) //     32 ------------------..-.-..-.....................................--..--...------------................--------------------------------------------------------------.........---------------------------------------------
(PID.TID 0000.0001) //     31 ----------------..------.-.....................................-----.--------------................---------------------------------------------------------------..........--------------------------------------------
(PID.TID 0000.0001) //     30 ----------------.-------------.................................---------------------...............-------------------------------------------------------------..............------------------------------------------
(PID.TID 0000.0001) //     29 ------------------...---------..................................-----------------......--.........--------------------------------------------------------------...............-----------------------------------------
(PID.TID 0000.0001) //     28 ---------------........-........................................------------------.....---........--------------------------------------------------------------................----------------------------------------
(PID.TID 0000.0001) //     27 ---------------..........................---....................--------------------....--........-------------------------------------------------------------.................----------------------------------------
(PID.TID 0000.0001) //     26 --------------...........................----...................--------------------------........------------------------------------------------------------...................---.-----------------------------------
(PID.TID 0000.0001) //     25 -------------..................-...........----................-----------------------.--.........------------------------------------------------------------...................---.-----------------------------------
(PID.TID 0000.0001) //     24 ------------...................-...........-----.....--.....--------------------------............------------------------------------------------------------....................--..----------------------------------
(PID.TID 0000.0001) //     23 ------------...................--...-.....------....---.....-----------------------..---..........----------------------------------------------.----------.--...........-.........-...---------------..----------------
(PID.TID 0000.0001) //     22 ------------....................--..--..--------...-----....-----------------------...---.--.......---------------------------------------------..------------..........------..........-------------......-------------
(PID.TID 0000.0001) //     21 ------------.....................---.------------..------....----------------------....--------.....--------------------------------------------...-------.----.......------------..--....----.-----.........-----------
(PID.TID 0000.0001) //     20 -------------...........................---------.---------.------------------------......------....--------------------------------------------......----.----.--...-------------------------.-----.........-----------
(PID.TID 0000.0001) //     19 --------------..........................-----------------.--------.--------------.--......------...---------------------------------------------.........-----.--------------------------------..--..........-----------
(PID.TID 0000.0001) //     18 ---------------------..............-...-----------------..----..--------.----.--------..--------------------------------------------------------.......------.----------------------------------.............-----------
(PID.TID 0000.0001) //     17 ---------------------.............--..-------------------..--...--------.---..--------------------.---------------------------------------------.......----..-----------------------------------..............----------
(PID.TID 0000.0001) //     16 ..-------------------............---.---------------------.--..------.---....--------------------...--------------------------------------------........---..-----------------------------------..............----------
(PID.TID 0000.0001) //     15 ....------------------..........---------------------------.----------..-....--..-----.----------...---------------------------------------..---........---.-------------------------------------.............----------
(PID.TID 0000.0001) //     14 ......----------------..........-----------------------------.------------..........------------....-----------------------------------------..-.........--.-------------------------------------.............----------
(PID.TID 0000.0001) //     13 .....------------------.........-----------------------------------------...........-----------......-------------------------------------------............--------------------------------------...........-----------
(PID.TID 0000.0001) //     12 .....-----------------..........-------------------------------------.----..........-------.---....--.------------------------------------------...........--------------------------------------------......-----------
(PID.TID 0000.0001) //     11 ....------------------..........---.---.--------------------------....---...........-----..........---------------------------------------------..........---------------------------------------------.....------------
(PID.TID 0000.0001) //     10 ....------------------.........---..--..-------------------------..................................---------------------------------------------........------------------------------------------------..--------------
(PID.TID 0000.0001) //      9 ....-------------------.......----.---.-------------------------........---........................---------------------------------------------.......-----------------------------------------------------------------
(PID.TID 0000.0001) //      8 ...--------------------.......----.---.-----------------------............--.........................-------------------------------------------......------------------------------------------------------------------
(PID.TID 0000.0001) //      7 .----------------------.......----.---.-----------------------.............--.........................---------------------------------......----....-------------------------------------------------------------------
(PID.TID 0000.0001) //      6 -----------------------......---------------------------------.............--.........................-.------------------------------........--------------------------------------------------------------------------
(PID.TID 0000.0001) //      5 ------------------------....----------------------------------.............--.........................--.---.------------------------.........--------------------------------------------------------------------------
(PID.TID 0000.0001) //      4 ------------------------...-----------------------------------........................................---.---.------------------.---..........--------------------------------------------------------------------------
(PID.TID 0000.0001) //      3 ---------------------------------------------------------------------.................................----.---.----------------..--..........---------------------------------------------------------------------------
(PID.TID 0000.0001) //      2 ----------------------------------------------------------------------...............................-----.---.----------------.----.........---------------------------------------------------------------------------
(PID.TID 0000.0001) //      1 ------------------------------------------------------------------------.............................-----.---.----------------.----.........-----------------------------------------------------------.---------------
(PID.TID 0000.0001) //      0 ..--------------------------------....--------------------------------.............................--..--......---------------.---..........--....--------------------------------....------------------.-------...---..
(PID.TID 0000.0001) //     -1 ..--------------------------------....--------------------------------.............................-----.-....-.-------------------........---....--------------------------------....-----------------.-------.........
(PID.TID 0000.0001) // =======================================================
(PID.TID 0000.0001) // END OF FIELD                                          =
(PID.TID 0000.0001) // =======================================================
(PID.TID 0000.0001) 
(PID.TID 0000.0001) // =======================================================
(PID.TID 0000.0001) // Field hFacW at iteration          1
(PID.TID 0000.0001) // CMIN =          1.000000000000000E+00
(PID.TID 0000.0001) // CMAX =          1.000000000000000E+00
(PID.TID 0000.0001) // CINT =          0.000000000000000E+00
(PID.TID 0000.0001) // SYMBOLS (CMIN->CMAX): -abcdefghijklmnopqrstuvwxyz+
(PID.TID 0000.0001) //                  0.0: .
(PID.TID 0000.0001) // RANGE I (Lo:Hi:Step):(  -1: 194:   1)
(PID.TID 0000.0001) // RANGE J (Lo:Hi:Step):(  34:  -1:  -1)
(PID.TID 0000.0001) // RANGE K (Lo:Hi:Step):(   1:   1:   1)
(PID.TID 0000.0001) // =======================================================
(PID.TID 0000.0001) K =   1
(PID.TID 0000.0001) //                I=8       I=18      I=28      I=34      I=44      I=54      I=64      I=70      I=80      I=90      I=96      I=106     I=116     I=126     I=132     I=142     I=152     I=162     I=168     I=178     I=188
(PID.TID 0000.0001) // |--J--|*01234567|901234567|901234567|901234123|567890123|567890123|567890123|563456789|123456789|123456789|123456785|789012345|789012345|789012345|789078901|345678901|345678901|345678901|901234567|901234567|901234567|901234
(PID.TID 0000.0001) //     34 ..----------------.........---....................................----....------------...............------...---------------------------------...-----------------........--------...---------------------------------.
(PID.TID 0000.0001) //     33 ..----------------........-.......................................----....-----------................------...---------------------------------...-----------------.........-------...---------------------------------.
(PID.TID 0000.0001) //     32 ------------------..............................................-...-...------------.................-------------------------------------------------------------..........--------------------------------------------
(PID.TID 0000.0001) //     31 ----------------...-----........................................----..-------------.................--------------------------------------------------------------...........-------------------------------------------
(PID.TID 0000.0001) //     30 ----------------..------------..................................--------------------................------------------------------------------------------------...............-----------------------------------------
(PID.TID 0000.0001) //     29 ------------------....--------...................................----------------.......-..........-------------------------------------------------------------................----------------------------------------
(PID.TID 0000.0001) //     28 ---------------..................................................-----------------......--.........-------------------------------------------------------------.................---.-----------------------------------
(PID.TID 0000.0001) //     27 ---------------...........................--.....................-------------------.....-.........------------------------------------------------------------..................---.-----------------------------------
(PID.TID 0000.0001) //     26 --------------............................---....................-------------------------.........-----------------------------------------------------------....................--..----------------------------------
(PID.TID 0000.0001) //     25 -------------...............................---.................----------------------..-..........-----------------------------------------------------------....................--..----------------------------------
(PID.TID 0000.0001) //     24 ------------................................----......-......-------------------------.............-----------------------------------------------------------.....................-...---------------------------------
(PID.TID 0000.0001) //     23 ------------....................-...-......-----.....--......----------------------...--...........---------------------------------------------..---------..-..........................--------------...---------------
(PID.TID 0000.0001) //     22 ------------.....................-...-...-------....----.....----------------------....--..-........--------------------------------------------...-----------...........-----...........------------.......------------
(PID.TID 0000.0001) //     21 ------------......................--..-----------...-----.....---------------------.....-------......-------------------------------------------....------..---........-----------..--.....---..----..........----------
(PID.TID 0000.0001) //     20 -------------............................--------..--------..-----------------------.......-----.....-------------------------------------------.......---..---..-....------------------------..----..........----------
(PID.TID 0000.0001) //     19 --------------...........................----------------..-------..-------------..-.......-----....--------------------------------------------..........----..-------------------------------...-...........----------
(PID.TID 0000.0001) //     18 .--------------------...................----------------...---...-------..---..-------...-------------------------------------------------------........-----..---------------------------------..............----------
(PID.TID 0000.0001) //     17 .--------------------..............-...------------------...-....-------..--...-------------------..--------------------------------------------........---...----------------------------------...............---------
(PID.TID 0000.0001) //     16 ...------------------.............--..--------------------..-...-----..--.....-------------------....-------------------------------------------.........--...----------------------------------...............---------
(PID.TID 0000.0001) //     15 .....-----------------...........---.----------------------..---------..-.....-...----..---------....--------------------------------------...--.........--..------------------------------------..............---------
(PID.TID 0000.0001) //     14 .......---------------...........---.------------------------..-----------...........-----------.....----------------------------------------.............-..------------------------------------..............---------
(PID.TID 0000.0001) //     13 ......-----------------..........---.------------------------------------............----------.......------------------------------------------.............-------------------------------------............----------
(PID.TID 0000.0001) //     12 ......----------------...........---.--------------------------------..---...........------..--.....-..-----------------------------------------............-------------------------------------------.......----------
(PID.TID 0000.0001) //     11 .....-----------------...........--..--..-------------------------.....--............----...........--------------------------------------------...........--------------------------------------------......-----------
(PID.TID 0000.0001) //     10 .....-----------------..........--..--...------------------------...................................--------------------------------------------.........-----------------------------------------------...-------------
(PID.TID 0000.0001) //      9 .....------------------........---..--..------------------------........---.........................--------------------------------------------........----------------------------------------------------------------
(PID.TID 0000.0001) //      8 ....-------------------........---..--..----------------------.............-..........................------------------------------------------.......-----------------------------------------------------------------
(PID.TID 0000.0001) //      7 ..---------------------........---..--..----------------------..............-..........................--------------------------------.......---.....------------------------------------------------------------------
(PID.TID 0000.0001) //      6 .----------------------.......--------------------------------..............-............................---.-------------------------.........-------------------------------------------------------------------------
(PID.TID 0000.0001) //      5 .-----------------------.....---------------------------------..............-..........................-..--..-----------------------..........-------------------------------------------------------------------------
(PID.TID 0000.0001) //      4 ------------------------....----------------------------------.........................................--..--..-----------------..--...........-------------------------------------------------------------------------
(PID.TID 0000.0001) //      3 ---------------------------------------------------------------------..................................---..--..---------------...-...........--------------------------------------------------------------------------
(PID.TID 0000.0001) //      2 ----------------------------------------------------------------------................................----..--..---------------..---..........--------------------------------------------------------------------------
(PID.TID 0000.0001) //      1 ------------------------------------------------------------------------..............................----..--..---------------..---..........----------------------------------------------------------..--------------
(PID.TID 0000.0001) //      0 ..---------------------------------...---------------------------------.............................-...-.......--------------..--...........--...---------------------------------...------------------..------....---.
(PID.TID 0000.0001) //     -1 ..---------------------------------...---------------------------------.............................----..-...-..------------------.........---...---------------------------------...-----------------..------.........
(PID.TID 0000.0001) // =======================================================
(PID.TID 0000.0001) // END OF FIELD                                          =
(PID.TID 0000.0001) // =======================================================
(PID.TID 0000.0001) 
(PID.TID 0000.0001) // =======================================================
(PID.TID 0000.0001) // Field hFacS at iteration          1
(PID.TID 0000.0001) // CMIN =          1.000000000000000E+00
(PID.TID 0000.0001) // CMAX =          1.000000000000000E+00
(PID.TID 0000.0001) // CINT =          0.000000000000000E+00
(PID.TID 0000.0001) // SYMBOLS (CMIN->CMAX): -abcdefghijklmnopqrstuvwxyz+
(PID.TID 0000.0001) //                  0.0: .
(PID.TID 0000.0001) // RANGE I (Lo:Hi:Step):(  -1: 194:   1)
(PID.TID 0000.0001) // RANGE J (Lo:Hi:Step):(  34:  -1:  -1)
(PID.TID 0000.0001) // RANGE K (Lo:Hi:Step):(   1:   1:   1)
(PID.TID 0000.0001) // =======================================================
(PID.TID 0000.0001) K =   1
(PID.TID 0000.0001) //                I=8       I=18      I=28      I=34      I=44      I=54      I=64      I=70      I=80      I=90      I=96      I=106     I=116     I=126     I=132     I=142     I=152     I=162     I=168     I=178     I=188
(PID.TID 0000.0001) // |--J--|*01234567|901234567|901234567|901234123|567890123|567890123|567890123|563456789|123456789|123456789|123456785|789012345|789012345|789012345|789078901|345678901|345678901|345678901|901234567|901234567|901234567|901234
(PID.TID 0000.0001) //     34 ..----------------........-......................................-----....-----------...............------....--------------------------------....-----------------........-------....--------------------------------..
(PID.TID 0000.0001) //     33 ------------------.......-.........................................--...------------................--------------------------------------------------------------.........---------------------------------------------
(PID.TID 0000.0001) //     32 ----------------....-.-..-.....................................--..-....-----------.................--------------------------------------------------------------..........--------------------------------------------
(PID.TID 0000.0001) //     31 ----------------..------.-.....................................-----.--------------................-------------------------------------------------------------..............------------------------------------------
(PID.TID 0000.0001) //     30 ----------------.-...---------..................................-----------------..................-------------------------------------------------------------...............-----------------------------------------
(PID.TID 0000.0001) //     29 ---------------........-........................................-----------------......--.........--------------------------------------------------------------................----------------------------------------
(PID.TID 0000.0001) //     28 ---------------.................................................------------------......--........-------------------------------------------------------------.................----------------------------------------
(PID.TID 0000.0001) //     27 --------------...........................---....................--------------------....--........------------------------------------------------------------...................---.-----------------------------------
(PID.TID 0000.0001) //     26 -------------..............................--...................----------------------.--.........------------------------------------------------------------...................---.-----------------------------------
(PID.TID 0000.0001) //     25 ------------...................-...........----................-----------------------............------------------------------------------------------------....................--..----------------------------------
(PID.TID 0000.0001) //     24 ------------...................-...........-----.....--.....-----------------------..-............----------------------------------------------.----------.--.....................-...---------------..----------------
(PID.TID 0000.0001) //     23 ------------....................-...-.....------....---.....-----------------------...--...........---------------------------------------------..---------.--...........-..............-------------......-------------
(PID.TID 0000.0001) //     22 ------------.....................-...-..--------...-----.....----------------------....--.--........--------------------------------------------...-------.---..........------............----.-----.........-----------
(PID.TID 0000.0001) //     21 ------------............................---------..------....----------------------.......-----.....--------------------------------------------......----.----.......------------..--....----.-----.........-----------
(PID.TID 0000.0001) //     20 -------------...........................---------.-------.-.------.--------------.--......------....--------------------------------------------.........-.---..--...-------------------------...--..........-----------
(PID.TID 0000.0001) //     19 --------------..........................----------------..----..--.-----.----.---.--......------...---------------------------------------------.........----..--------------------------------..............-----------
(PID.TID 0000.0001) //     18 ---------------------..............-...-----------------...--...--------.---..--------..----------.---------------------------------------------.......----...----------------------------------..............----------
(PID.TID 0000.0001) //     17 ..-------------------.............--..-------------------..--...-----.--......-------------------...--------------------------------------------........---..-----------------------------------..............----------
(PID.TID 0000.0001) //     16 ....-----------------............---.---------------------..-..------...-....--..-----.----------...---------------------------------------..---........---..-----------------------------------..............----------
(PID.TID 0000.0001) //     15 ......----------------..........---------------------------.-.--------..-...........--.---------....---------------------------------------....-.........--.-------------------------------------.............----------
(PID.TID 0000.0001) //     14 ......----------------..........-----------------------------.-----------...........-----------......----------------------------------------..-............-------------------------------------.............----------
(PID.TID 0000.0001) //     13 .....-----------------..........-------------------------------------.---...........-------.---.......------------------------------------------............--------------------------------------...........-----------
(PID.TID 0000.0001) //     12 .....-----------------..........---.---.--------------------------....---...........-----..........--.------------------------------------------...........--------------------------------------------......-----------
(PID.TID 0000.0001) //     11 ....------------------..........--..--..-------------------------..................................---------------------------------------------..........---------------------------------------------.....------------
(PID.TID 0000.0001) //     10 ....------------------.........---..--..------------------------...................................---------------------------------------------........------------------------------------------------..--------------
(PID.TID 0000.0001) //      9 ....-------------------.......----.---.-----------------------............-..........................-------------------------------------------.......-----------------------------------------------------------------
(PID.TID 0000.0001) //      8 ...--------------------.......----.---.-----------------------.............-..........................---------------------------------......---......------------------------------------------------------------------
(PID.TID 0000.0001) //      7 .----------------------.......----.---.-----------------------.............--.........................-.------------------------------........---....-------------------------------------------------------------------
(PID.TID 0000.0001) //      6 -----------------------......---------------------------------.............--.........................-..---.------------------------.........--------------------------------------------------------------------------
(PID.TID 0000.0001) //      5 ------------------------....----------------------------------........................................--..--..------------------.---..........--------------------------------------------------------------------------
(PID.TID 0000.0001) //      4 ------------------------...-----------------------------------........................................---..--..----------------..--...........--------------------------------------------------------------------------
(PID.TID 0000.0001) //      3 ---------------------------------------------------------------------.................................----.---.----------------..--..........---------------------------------------------------------------------------
(PID.TID 0000.0001) //      2 ----------------------------------------------------------------------...............................-----.---.----------------.----.........-----------------------------------------------------------.---------------
(PID.TID 0000.0001) //      1 ------------------------------------------------------------------------...............................--..--..---------------..--...........-----------------------------------------------------------.-------...----.
(PID.TID 0000.0001) //      0 ..--------------------------------....--------------------------------.............................--..-........--------------.---..........--....--------------------------------....-----------------..------.........
(PID.TID 0000.0001) //     -1 ..--------------------------------....--------------------------------.............................-----.-....-.-------------------........---....--------------------------------....-----------------.-------.........
(PID.TID 0000.0001) // =======================================================
(PID.TID 0000.0001) // END OF FIELD                                          =
(PID.TID 0000.0001) // =======================================================
(PID.TID 0000.0001) 
(PID.TID 0000.0001)  PACKAGES_BOOT: opening data.pkg
(PID.TID 0000.0001)  OPEN_COPY_DATA_FILE: opening file data.pkg
(PID.TID 0000.0001) // =======================================================
(PID.TID 0000.0001) // Parameter file "data.pkg"
(PID.TID 0000.0001) // =======================================================
(PID.TID 0000.0001) ># Packages
(PID.TID 0000.0001) > &PACKAGES
(PID.TID 0000.0001) > useGMRedi=.TRUE.,
(PID.TID 0000.0001) >#useBulkforce=.TRUE.,
(PID.TID 0000.0001) >#useThermSeaIce=.TRUE.,
(PID.TID 0000.0001) > &
(PID.TID 0000.0001) 
(PID.TID 0000.0001)  PACKAGES_BOOT: finished reading data.pkg
(PID.TID 0000.0001)  GM_READPARMS: opening data.gmredi
(PID.TID 0000.0001)  OPEN_COPY_DATA_FILE: opening file data.gmredi
(PID.TID 0000.0001) // =======================================================
(PID.TID 0000.0001) // Parameter file "data.gmredi"
(PID.TID 0000.0001) // =======================================================
(PID.TID 0000.0001) ># GM+Redi package parameters:
(PID.TID 0000.0001) >
(PID.TID 0000.0001) >#-from MOM :
(PID.TID 0000.0001) ># GM_background_K: 	G & Mc.W  diffusion coefficient
(PID.TID 0000.0001) ># GM_maxSlope    :	max slope of isopycnals
(PID.TID 0000.0001) ># GM_Scrit       :	transition for scaling diffusion coefficient
(PID.TID 0000.0001) ># GM_Sd          :	half width scaling for diffusion coefficient
(PID.TID 0000.0001) ># GM_taper_scheme:	slope clipping or one of the tapering schemes
(PID.TID 0000.0001) ># GM_Kmin_horiz  :	horizontal diffusion minimum value
(PID.TID 0000.0001) >
(PID.TID 0000.0001) >#-Option parameters (needs to "define" options in GMREDI_OPTIONS.h")
(PID.TID 0000.0001) ># GM_isopycK     :	isopycnal diffusion coefficient (default=GM_background_K)
(PID.TID 0000.0001) ># GM_AdvForm     :	turn on GM Advective form       (default=Skew flux form)
(PID.TID 0000.0001) >
(PID.TID 0000.0001) > &GM_PARM01
(PID.TID 0000.0001) >  GM_background_K    = 800.,
(PID.TID 0000.0001) >  GM_taper_scheme    = 'gkw91',
(PID.TID 0000.0001) >  GM_maxSlope        = 1.e-2,
(PID.TID 0000.0001) >  GM_Kmin_horiz      = 50.,
(PID.TID 0000.0001) >  GM_Scrit           = 4.e-3,
(PID.TID 0000.0001) >  GM_Sd              = 1.e-3,
(PID.TID 0000.0001) ># GM_Visbeck_alpha   = 0.,
(PID.TID 0000.0001) ># GM_Visbeck_length  = 2.e+5,
(PID.TID 0000.0001) ># GM_Visbeck_depth   = 1.e+3,
(PID.TID 0000.0001) ># GM_Visbeck_maxval_K= 2.5e+3,
(PID.TID 0000.0001) > &end
(PID.TID 0000.0001) >
(PID.TID 0000.0001) >
(PID.TID 0000.0001) 
(PID.TID 0000.0001)  GM_READPARMS: finished reading data.gmredi
(PID.TID 0000.0001) 
(PID.TID 0000.0001) // ===================================
(PID.TID 0000.0001) // GAD parameters :
(PID.TID 0000.0001) // ===================================
(PID.TID 0000.0001) tempAdvScheme =   /* Temp. advection scheme selector */
(PID.TID 0000.0001)                       2
(PID.TID 0000.0001)     ;
(PID.TID 0000.0001) tempMultiDimAdvec =   /* use Muti-Dim Advec method for Temp */
(PID.TID 0000.0001)                   F
(PID.TID 0000.0001)     ;
(PID.TID 0000.0001) tempAdamsBashforth =   /* use Adams-Bashforth time-stepping for Temp */
(PID.TID 0000.0001)                   T
(PID.TID 0000.0001)     ;
(PID.TID 0000.0001) saltAdvScheme =   /* Salt. advection scheme selector */
(PID.TID 0000.0001)                       2
(PID.TID 0000.0001)     ;
(PID.TID 0000.0001) saltMultiDimAdvec =   /* use Muti-Dim Advec method for Salt */
(PID.TID 0000.0001)                   F
(PID.TID 0000.0001)     ;
(PID.TID 0000.0001) saltAdamsBashforth =   /* use Adams-Bashforth time-stepping for Salt */
(PID.TID 0000.0001)                   T
(PID.TID 0000.0001)     ;
(PID.TID 0000.0001) // ===================================
(PID.TID 0000.0001) GMREDI_CHECK: #define GMREDI
(PID.TID 0000.0001) GM_AdvForm =  /* if FALSE => use SkewFlux Form */
(PID.TID 0000.0001)                   F
(PID.TID 0000.0001)     ;
(PID.TID 0000.0001) GM_AdvSeparate = /* Calc Bolus & Euler Adv. separately */
(PID.TID 0000.0001)                   F
(PID.TID 0000.0001)     ;
(PID.TID 0000.0001) GM_ExtraDiag =  /* Tensor Extra Diag (line 1&2) non 0 */
(PID.TID 0000.0001)                   F
(PID.TID 0000.0001)     ;
(PID.TID 0000.0001) GM_isopycK =   /* Background Isopyc. Diffusivity ( m^2/s ) */
(PID.TID 0000.0001)                 8.000000000000000E+02
(PID.TID 0000.0001)     ;
(PID.TID 0000.0001)  GM_skewflx*K =   /* Background GM_SkewFlx Diffusivity ( m^2/s ) */
(PID.TID 0000.0001)                 8.000000000000000E+02
(PID.TID 0000.0001)     ;
(PID.TID 0000.0001)  GM_advec*K =   /* Backg. GM-Advec(=Bolus) Diffusivity ( m^2/s ) */
(PID.TID 0000.0001)                 0.000000000000000E+00
(PID.TID 0000.0001)     ;
(PID.TID 0000.0001)  GM_Visbeck_alpha =   /* Visbeck alpha coeff. ( ) */
(PID.TID 0000.0001)                 0.000000000000000E+00
(PID.TID 0000.0001)     ;
(PID.TID 0000.0001)  Tapering/Cliping : gkw91
(PID.TID 0000.0001)  GM_Small_Number =  /* epsilon used in slope calc */
(PID.TID 0000.0001)                 1.000000000000000E-12
(PID.TID 0000.0001)     ;
(PID.TID 0000.0001)  GM_slopeSqCutoff =  /* Slope^2 cut-off value */
(PID.TID 0000.0001)                 1.000000000000000E+48
(PID.TID 0000.0001)     ;
(PID.TID 0000.0001) %MON fCori_max                    =   1.4535016908525E-04
(PID.TID 0000.0001) %MON fCori_min                    =  -1.4535016908525E-04
(PID.TID 0000.0001) %MON fCori_mean                   =   8.5365039215472E-22
(PID.TID 0000.0001) %MON fCori_sd                     =   8.3972192788621E-05
(PID.TID 0000.0001) %MON fCoriG_max                   =   1.4544410433286E-04
(PID.TID 0000.0001) %MON fCoriG_min                   =  -1.4544410433286E-04
(PID.TID 0000.0001) %MON fCoriG_mean                  =   9.9796700966398E-22
(PID.TID 0000.0001) %MON fCoriG_sd                    =   8.4860812167727E-05
(PID.TID 0000.0001) %MON fCoriCos_max                 =   1.4540341538469E-04
(PID.TID 0000.0001) %MON fCoriCos_min                 =   5.2264550201501E-06
(PID.TID 0000.0001) %MON fCoriCos_mean                =   1.1482595466044E-04
(PID.TID 0000.0001) %MON fCoriCos_sd                  =   3.0292878037194E-05
(PID.TID 0000.0001) // CG2D normalisation factor =          0.1915656415494955346241757E-03
(PID.TID 0000.0001) 
 ini_cg2d: sumArea,cg2dTolerance =  3.63886737508162E+14  5.80901636017533E-07
(PID.TID 0000.0001) CONFIG_CHECK: OK
(PID.TID 0000.0001) // =======================================================
(PID.TID 0000.0001) // Model configuration
(PID.TID 0000.0001) // =======================================================
(PID.TID 0000.0001) //
(PID.TID 0000.0001) // "Physical" paramters ( PARM01 in namelist )
(PID.TID 0000.0001) //
(PID.TID 0000.0001) buoyancyRelation = OCEANIC
(PID.TID 0000.0001) tRef =   /* Reference temperature profile ( oC or oK ) */
(PID.TID 0000.0001)    15 @  2.000000000000000E+01              /* K =  1: 15 */
(PID.TID 0000.0001)     ;
(PID.TID 0000.0001) sRef =   /* Reference salinity profile ( ppt ) */
(PID.TID 0000.0001)    15 @  3.500000000000000E+01              /* K =  1: 15 */
(PID.TID 0000.0001)     ;
(PID.TID 0000.0001) viscAh =   /* Lateral eddy viscosity ( m^2/s ) */
(PID.TID 0000.0001)                 3.000000000000000E+05
(PID.TID 0000.0001)     ;
(PID.TID 0000.0001) viscA4 =   /* Lateral biharmonic viscosity ( m^4/s ) */
(PID.TID 0000.0001)                 0.000000000000000E+00
(PID.TID 0000.0001)     ;
(PID.TID 0000.0001) no_slip_sides =  /* Viscous BCs: No-slip sides */
(PID.TID 0000.0001)                   T
(PID.TID 0000.0001)     ;
(PID.TID 0000.0001) viscAr =   /* Vertical eddy viscosity ( units of r^2/s ) */
(PID.TID 0000.0001)                 1.000000000000000E-03
(PID.TID 0000.0001)     ;
(PID.TID 0000.0001) diffKhT =   /* Laplacian diffusion of heat laterally ( m^2/s ) */
(PID.TID 0000.0001)                 0.000000000000000E+00
(PID.TID 0000.0001)     ;
(PID.TID 0000.0001) diffK4T =   /* Bihaarmonic diffusion of heat laterally ( m^4/s ) */
(PID.TID 0000.0001)                 0.000000000000000E+00
(PID.TID 0000.0001)     ;
(PID.TID 0000.0001) diffKrT =   /* Laplacian diffusion of heat vertically ( m^2/s ) */
(PID.TID 0000.0001)                 3.000000000000000E-05
(PID.TID 0000.0001)     ;
(PID.TID 0000.0001) diffKhS =   /* Laplacian diffusion of salt laterally ( m^2/s ) */
(PID.TID 0000.0001)                 0.000000000000000E+00
(PID.TID 0000.0001)     ;
(PID.TID 0000.0001) diffK4S =   /* Bihaarmonic diffusion of salt laterally ( m^4/s ) */
(PID.TID 0000.0001)                 0.000000000000000E+00
(PID.TID 0000.0001)     ;
(PID.TID 0000.0001) diffKrS =   /* Laplacian diffusion of salt vertically ( m^2/s ) */
(PID.TID 0000.0001)                 3.000000000000000E-05
(PID.TID 0000.0001)     ;
(PID.TID 0000.0001)  Equation of State : eosType = JMD95Z
(PID.TID 0000.0001) tAlpha =   /* Linear EOS thermal expansion coefficient ( 1/degree ) */
(PID.TID 0000.0001)                 1.234567000000000E+05
(PID.TID 0000.0001)     ;
(PID.TID 0000.0001) sBeta =   /* Linear EOS haline contraction coefficient ( 1/ppt ) */
(PID.TID 0000.0001)                 1.234567000000000E+05
(PID.TID 0000.0001)     ;
(PID.TID 0000.0001) rhonil =   /* Reference density ( kg/m^3 ) */
(PID.TID 0000.0001)                 1.035000000000000E+03
(PID.TID 0000.0001)     ;
(PID.TID 0000.0001) rhoConst =   /* Reference density ( kg/m^3 ) */
(PID.TID 0000.0001)                 1.035000000000000E+03
(PID.TID 0000.0001)     ;
(PID.TID 0000.0001) rhoConstFresh =   /* Reference density ( kg/m^3 ) */
(PID.TID 0000.0001)                 1.035000000000000E+03
(PID.TID 0000.0001)     ;
(PID.TID 0000.0001) gravity =   /* Gravitational acceleration ( m/s^2 ) */
(PID.TID 0000.0001)                 9.810000000000000E+00
(PID.TID 0000.0001)     ;
(PID.TID 0000.0001) gBaro =   /* Barotropic gravity ( m/s^2 ) */
(PID.TID 0000.0001)                 9.810000000000000E+00
(PID.TID 0000.0001)     ;
[...]
(PID.TID 0000.0001) %MON dynstat_eta_sd               =   5.9671279137237E-01
(PID.TID 0000.0001) %MON dynstat_eta_del2             =   1.1250189893785E-02
(PID.TID 0000.0001) %MON dynstat_uvel_max             =   1.8382813959252E-01
(PID.TID 0000.0001) %MON dynstat_uvel_min             =  -2.8098426612400E-01
(PID.TID 0000.0001) %MON dynstat_uvel_mean            =  -4.8231691965219E-04
(PID.TID 0000.0001) %MON dynstat_uvel_sd              =   1.2024799649077E-02
(PID.TID 0000.0001) %MON dynstat_uvel_del2            =   1.5674263357840E-03
(PID.TID 0000.0001) %MON dynstat_vvel_max             =   1.7301709720918E-01
(PID.TID 0000.0001) %MON dynstat_vvel_min             =  -2.2347005143529E-01
(PID.TID 0000.0001) %MON dynstat_vvel_mean            =  -3.9983842210529E-04
(PID.TID 0000.0001) %MON dynstat_vvel_sd              =   1.2659647640033E-02
(PID.TID 0000.0001) %MON dynstat_vvel_del2            =   1.5896398521601E-03
(PID.TID 0000.0001) %MON dynstat_wvel_max             =   1.1021666792469E-04
(PID.TID 0000.0001) %MON dynstat_wvel_min             =  -2.0239019296982E-04
(PID.TID 0000.0001) %MON dynstat_wvel_mean            =  -3.1603496997076E-12
(PID.TID 0000.0001) %MON dynstat_wvel_sd              =   3.8732101362517E-06
(PID.TID 0000.0001) %MON dynstat_wvel_del2            =   8.5757291501943E-07
(PID.TID 0000.0001) %MON dynstat_theta_max            =   3.1138629883172E+01
(PID.TID 0000.0001) %MON dynstat_theta_min            =  -2.4278548073441E+00
(PID.TID 0000.0001) %MON dynstat_theta_mean           =   3.9288735451464E+00
(PID.TID 0000.0001) %MON dynstat_theta_sd             =   4.5750898271055E+00
(PID.TID 0000.0001) %MON dynstat_theta_del2           =   8.8141917917661E-02
(PID.TID 0000.0001) %MON dynstat_salt_max             =   4.1386394452294E+01
(PID.TID 0000.0001) %MON dynstat_salt_min             =   1.8394591230708E+01
(PID.TID 0000.0001) %MON dynstat_salt_mean            =   3.4775241896450E+01
(PID.TID 0000.0001) %MON dynstat_salt_sd              =   5.3471794350673E-01
(PID.TID 0000.0001) %MON dynstat_salt_del2            =   1.8978271184731E-02
(PID.TID 0000.0001) %MON advcfl_uvel_max              =   7.9692467775227E-02
(PID.TID 0000.0001) %MON advcfl_vvel_max              =   7.5415715171558E-02
(PID.TID 0000.0001) %MON advcfl_wvel_max              =   6.5986840273935E-02
(PID.TID 0000.0001) %MON advcfl_W_hf_max              =   1.1050152051119E-01
(PID.TID 0000.0001) %MON pe_b_mean                    =   4.7434591860959E-04
(PID.TID 0000.0001) %MON ke_max                       =   3.8295294299216E-02
(PID.TID 0000.0001) %MON ke_mean                      =   1.4096299799079E-04
(PID.TID 0000.0001) %MON ke_vol                       =   1.3398024453628E+18
(PID.TID 0000.0001) %MON vort_r_min                   =  -1.2807743873558E-06
(PID.TID 0000.0001) %MON vort_r_max                   =   1.2455288680878E-06
(PID.TID 0000.0001) %MON vort_a_mean                  =  -2.0491686619465E-05
(PID.TID 0000.0001) %MON vort_a_sd                    =   7.5056305550326E-05
(PID.TID 0000.0001) %MON vort_p_mean                  =  -2.4712295051170E-05
(PID.TID 0000.0001) %MON vort_p_sd                    =   1.2775047277710E-04
(PID.TID 0000.0001) %MON surfExpan_theta_mean         =   4.9556757947697E-08
(PID.TID 0000.0001) %MON surfExpan_salt_mean          =   1.5510269202969E-08
(PID.TID 0000.0001) // =======================================================
(PID.TID 0000.0001) // End MONITOR dynamic field statistics
(PID.TID 0000.0001) // =======================================================
 cg2d: Sum(rhs),rhsMax =  -3.45879547225536E-10  4.22968659067505E+00
(PID.TID 0000.0001)                    cg2d_init_res =    1.68356622617499E-01
(PID.TID 0000.0001)                       cg2d_iters =    62
(PID.TID 0000.0001)                         cg2d_res =    4.78557120321095E-07
(PID.TID 0000.0001) // =======================================================
(PID.TID 0000.0001) // Begin MONITOR dynamic field statistics
(PID.TID 0000.0001) // =======================================================
(PID.TID 0000.0001) %MON time_tsnumber                =                 72020
(PID.TID 0000.0001) %MON time_secondsf                =   6.2225280000000E+09
(PID.TID 0000.0001) %MON dynstat_eta_max              =   8.9258636095957E-01
(PID.TID 0000.0001) %MON dynstat_eta_min              =  -1.6054803047411E+00
(PID.TID 0000.0001) %MON dynstat_eta_mean             =   5.1493822115800E-13
(PID.TID 0000.0001) %MON dynstat_eta_sd               =   5.9665036927534E-01
(PID.TID 0000.0001) %MON dynstat_eta_del2             =   1.1252864425123E-02
(PID.TID 0000.0001) %MON dynstat_uvel_max             =   1.8368536025816E-01
(PID.TID 0000.0001) %MON dynstat_uvel_min             =  -2.8045009314620E-01
(PID.TID 0000.0001) %MON dynstat_uvel_mean            =  -4.8181216694392E-04
(PID.TID 0000.0001) %MON dynstat_uvel_sd              =   1.2025487793274E-02
(PID.TID 0000.0001) %MON dynstat_uvel_del2            =   1.5675815544435E-03
(PID.TID 0000.0001) %MON dynstat_vvel_max             =   1.7268639626537E-01
(PID.TID 0000.0001) %MON dynstat_vvel_min             =  -2.2332523992353E-01
(PID.TID 0000.0001) %MON dynstat_vvel_mean            =  -3.9939075106395E-04
(PID.TID 0000.0001) %MON dynstat_vvel_sd              =   1.2656021031242E-02
(PID.TID 0000.0001) %MON dynstat_vvel_del2            =   1.5895339367590E-03
(PID.TID 0000.0001) %MON dynstat_wvel_max             =   1.1045665422107E-04
(PID.TID 0000.0001) %MON dynstat_wvel_min             =  -2.0189036409883E-04
(PID.TID 0000.0001) %MON dynstat_wvel_mean            =  -1.1921517546292E-11
(PID.TID 0000.0001) %MON dynstat_wvel_sd              =   3.8703910420001E-06
(PID.TID 0000.0001) %MON dynstat_wvel_del2            =   8.5777426562826E-07
(PID.TID 0000.0001) %MON dynstat_theta_max            =   3.1145445111671E+01
(PID.TID 0000.0001) %MON dynstat_theta_min            =  -2.4565198421713E+00
(PID.TID 0000.0001) %MON dynstat_theta_mean           =   3.9289340490263E+00
(PID.TID 0000.0001) %MON dynstat_theta_sd             =   4.5752339766457E+00
(PID.TID 0000.0001) %MON dynstat_theta_del2           =   8.8138245917796E-02
(PID.TID 0000.0001) %MON dynstat_salt_max             =   4.1383467838570E+01
(PID.TID 0000.0001) %MON dynstat_salt_min             =   1.8394978038972E+01
(PID.TID 0000.0001) %MON dynstat_salt_mean            =   3.4775242621759E+01
(PID.TID 0000.0001) %MON dynstat_salt_sd              =   5.3471144396763E-01
(PID.TID 0000.0001) %MON dynstat_salt_del2            =   1.8970615045603E-02
(PID.TID 0000.0001) %MON advcfl_uvel_max              =   7.9540966186162E-02
(PID.TID 0000.0001) %MON advcfl_vvel_max              =   7.5271567289138E-02
(PID.TID 0000.0001) %MON advcfl_wvel_max              =   6.5823877200524E-02
(PID.TID 0000.0001) %MON advcfl_W_hf_max              =   1.0992157536933E-01
(PID.TID 0000.0001) %MON pe_b_mean                    =   4.7424668119203E-04
(PID.TID 0000.0001) %MON ke_max                       =   3.8143586716427E-02
(PID.TID 0000.0001) %MON ke_mean                      =   1.4092763072252E-04
(PID.TID 0000.0001) %MON ke_vol                       =   1.3398024453628E+18
(PID.TID 0000.0001) %MON vort_r_min                   =  -1.2852907143715E-06
(PID.TID 0000.0001) %MON vort_r_max                   =   1.2457568823677E-06
(PID.TID 0000.0001) %MON vort_a_mean                  =  -2.0491686628053E-05
(PID.TID 0000.0001) %MON vort_a_sd                    =   7.5056305494070E-05
(PID.TID 0000.0001) %MON vort_p_mean                  =  -2.4712295253891E-05
(PID.TID 0000.0001) %MON vort_p_sd                    =   1.2775047122835E-04
(PID.TID 0000.0001) %MON surfExpan_theta_mean         =   4.9606039509297E-08
(PID.TID 0000.0001) %MON surfExpan_salt_mean          =   1.5618036960873E-08
(PID.TID 0000.0001) // =======================================================
(PID.TID 0000.0001) // End MONITOR dynamic field statistics
(PID.TID 0000.0001) // =======================================================
(PID.TID 0000.0001) %CHECKPOINT     72020 0000072020
(PID.TID 0000.0001)   Seconds in section "ALL                    [THE_MODEL_MAIN]":
(PID.TID 0000.0001)           User time:  36.9399986
(PID.TID 0000.0001)         System time:  0.589999974
(PID.TID 0000.0001)     Wall clock time:  38.371305
(PID.TID 0000.0001)          No. starts: 1
(PID.TID 0000.0001)           No. stops: 1
(PID.TID 0000.0001)   Seconds in section "INITIALISE_FIXED       [THE_MODEL_MAIN]":
(PID.TID 0000.0001)           User time:  0.360000014
(PID.TID 0000.0001)         System time:  0.0599999987
(PID.TID 0000.0001)     Wall clock time:  1.00150692
(PID.TID 0000.0001)          No. starts: 1
(PID.TID 0000.0001)           No. stops: 1
(PID.TID 0000.0001)   Seconds in section "THE_MAIN_LOOP          [THE_MODEL_MAIN]":
(PID.TID 0000.0001)           User time:  36.5799986
(PID.TID 0000.0001)         System time:  0.529999975
(PID.TID 0000.0001)     Wall clock time:  37.3696741
(PID.TID 0000.0001)          No. starts: 1
(PID.TID 0000.0001)           No. stops: 1
(PID.TID 0000.0001)   Seconds in section "INITIALISE_VARIA    [THE_MAIN_LOOP]":
(PID.TID 0000.0001)           User time:  0.449999988
(PID.TID 0000.0001)         System time:  0.129999999
(PID.TID 0000.0001)     Wall clock time:  0.756096959
(PID.TID 0000.0001)          No. starts: 1
(PID.TID 0000.0001)           No. stops: 1
(PID.TID 0000.0001)   Seconds in section "MONITOR             [THE_MAIN_LOOP]":
(PID.TID 0000.0001)           User time:  0.189999998
(PID.TID 0000.0001)         System time:  0.
(PID.TID 0000.0001)     Wall clock time:  0.193866014
(PID.TID 0000.0001)          No. starts: 1
(PID.TID 0000.0001)           No. stops: 1
(PID.TID 0000.0001)   Seconds in section "DO_THE_MODEL_IO     [THE_MAIN_LOOP]":
(PID.TID 0000.0001)           User time:  0.0299999714
(PID.TID 0000.0001)         System time:  0.0900000036
(PID.TID 0000.0001)     Wall clock time:  0.131657004
(PID.TID 0000.0001)          No. starts: 1
(PID.TID 0000.0001)           No. stops: 1
(PID.TID 0000.0001)   Seconds in section "MAIN LOOP           [THE_MAIN_LOOP]":
(PID.TID 0000.0001)           User time:  35.9099987
(PID.TID 0000.0001)         System time:  0.309999973
(PID.TID 0000.0001)     Wall clock time:  36.2879391
(PID.TID 0000.0001)          No. starts: 1
(PID.TID 0000.0001)           No. stops: 1
(PID.TID 0000.0001)   Seconds in section "FORWARD_STEP        [THE_MAIN_LOOP]":
(PID.TID 0000.0001)           User time:  35.9099987
(PID.TID 0000.0001)         System time:  0.309999973
(PID.TID 0000.0001)     Wall clock time:  36.2875018
(PID.TID 0000.0001)          No. starts: 20
(PID.TID 0000.0001)           No. stops: 20
(PID.TID 0000.0001)   Seconds in section "UPDATE_ETAH        [FORWARD_STEP]":
(PID.TID 0000.0001)           User time:  0.00999999046
(PID.TID 0000.0001)         System time:  0.
(PID.TID 0000.0001)     Wall clock time:  0.00908637047
(PID.TID 0000.0001)          No. starts: 20
(PID.TID 0000.0001)           No. stops: 20
(PID.TID 0000.0001)   Seconds in section "CALC_R_STAR       [FORWARD_STEP]":
(PID.TID 0000.0001)           User time:  0.0999979973
(PID.TID 0000.0001)         System time:  0.
(PID.TID 0000.0001)     Wall clock time:  0.0937598944
(PID.TID 0000.0001)          No. starts: 20
(PID.TID 0000.0001)           No. stops: 20
(PID.TID 0000.0001)   Seconds in section "EXTERNAL_FIELDS_LOAD[FORWARD_STEP]":
(PID.TID 0000.0001)           User time:  0.0800000429
(PID.TID 0000.0001)         System time:  0.00999999046
(PID.TID 0000.0001)     Wall clock time:  0.141326785
(PID.TID 0000.0001)          No. starts: 20
(PID.TID 0000.0001)           No. stops: 20
(PID.TID 0000.0001)   Seconds in section "THERMODYNAMICS      [FORWARD_STEP]":
(PID.TID 0000.0001)           User time:  12.7700022
(PID.TID 0000.0001)         System time:  0.
(PID.TID 0000.0001)     Wall clock time:  12.7393972
(PID.TID 0000.0001)          No. starts: 20
(PID.TID 0000.0001)           No. stops: 20
(PID.TID 0000.0001)   Seconds in section "BLOCKING_EXCHANGES  [FORWARD_STEP]":
(PID.TID 0000.0001)           User time:  0.159994364
(PID.TID 0000.0001)         System time:  0.
(PID.TID 0000.0001)     Wall clock time:  0.143427134
(PID.TID 0000.0001)          No. starts: 40
(PID.TID 0000.0001)           No. stops: 40
(PID.TID 0000.0001)   Seconds in section "DYNAMICS            [FORWARD_STEP]":
(PID.TID 0000.0001)           User time:  10.8100009
(PID.TID 0000.0001)         System time:  0.00999999046
(PID.TID 0000.0001)     Wall clock time:  10.8251829
(PID.TID 0000.0001)          No. starts: 20
(PID.TID 0000.0001)           No. stops: 20
(PID.TID 0000.0001)   Seconds in section "UPDATE_R_STAR      [FORWARD_STEP]":
(PID.TID 0000.0001)           User time:  0.599999189
(PID.TID 0000.0001)         System time:  0.
(PID.TID 0000.0001)     Wall clock time:  0.617755175
(PID.TID 0000.0001)          No. starts: 20
(PID.TID 0000.0001)           No. stops: 20
(PID.TID 0000.0001)   Seconds in section "UPDATE_CG2D        [FORWARD_STEP]":
(PID.TID 0000.0001)           User time:  0.280004025
(PID.TID 0000.0001)         System time:  0.00999999046
(PID.TID 0000.0001)     Wall clock time:  0.292245269
(PID.TID 0000.0001)          No. starts: 20
(PID.TID 0000.0001)           No. stops: 20
(PID.TID 0000.0001)   Seconds in section "SOLVE_FOR_PRESSURE  [FORWARD_STEP]":
(PID.TID 0000.0001)           User time:  4.61999512
(PID.TID 0000.0001)         System time:  0.0200000107
(PID.TID 0000.0001)     Wall clock time:  4.63444018
(PID.TID 0000.0001)          No. starts: 20
(PID.TID 0000.0001)           No. stops: 20
(PID.TID 0000.0001)   Seconds in section "THE_CORRECTION_STEP [FORWARD_STEP]":
(PID.TID 0000.0001)           User time:  2.38000417
(PID.TID 0000.0001)         System time:  0.0100000203
(PID.TID 0000.0001)     Wall clock time:  2.39773703
(PID.TID 0000.0001)          No. starts: 20
(PID.TID 0000.0001)           No. stops: 20
(PID.TID 0000.0001)   Seconds in section "MONITOR             [FORWARD_STEP]":
(PID.TID 0000.0001)           User time:  3.85000253
(PID.TID 0000.0001)         System time:  0.00999999046
(PID.TID 0000.0001)     Wall clock time:  3.88484824
(PID.TID 0000.0001)          No. starts: 20
(PID.TID 0000.0001)           No. stops: 20
(PID.TID 0000.0001)   Seconds in section "DO_THE_MODEL_IO     [FORWARD_STEP]":
(PID.TID 0000.0001)           User time:  0.0599975586
(PID.TID 0000.0001)         System time:  0.0699999928
(PID.TID 0000.0001)     Wall clock time:  0.155987024
(PID.TID 0000.0001)          No. starts: 20
(PID.TID 0000.0001)           No. stops: 20
(PID.TID 0000.0001)   Seconds in section "WRITE_CHECKPOINT    [FORWARD_STEP]":
(PID.TID 0000.0001)           User time:  0.180000305
(PID.TID 0000.0001)         System time:  0.159999967
(PID.TID 0000.0001)     Wall clock time:  0.339693308
(PID.TID 0000.0001)          No. starts: 20
(PID.TID 0000.0001)           No. stops: 20
(PID.TID 0000.0001)   Seconds in section "WRITE_CHECKPOINT       [THE_MODEL_MAIN]":
(PID.TID 0000.0001)           User time:  0.
(PID.TID 0000.0001)         System time:  0.
(PID.TID 0000.0001)     Wall clock time:  2.20537186E-05
(PID.TID 0000.0001)          No. starts: 1
(PID.TID 0000.0001)           No. stops: 1
(PID.TID 0000.0001) // ======================================================
(PID.TID 0000.0001) // Tile <-> Tile communication statistics
(PID.TID 0000.0001) // ======================================================
(PID.TID 0000.0001) // o Tile number: 000001
(PID.TID 0000.0001) //         No. X exchanges =              0
(PID.TID 0000.0001) //            Max. X spins =              0
(PID.TID 0000.0001) //            Min. X spins =     1000000000
(PID.TID 0000.0001) //          Total. X spins =              0
(PID.TID 0000.0001) //            Avg. X spins =       0.00E+00
(PID.TID 0000.0001) //         No. Y exchanges =              0
(PID.TID 0000.0001) //            Max. Y spins =              0
(PID.TID 0000.0001) //            Min. Y spins =     1000000000
(PID.TID 0000.0001) //          Total. Y spins =              0
(PID.TID 0000.0001) //            Avg. Y spins =       0.00E+00
(PID.TID 0000.0001) // o Tile number: 000002
(PID.TID 0000.0001) //         No. X exchanges =              0
(PID.TID 0000.0001) //            Max. X spins =              0
(PID.TID 0000.0001) //            Min. X spins =     1000000000
(PID.TID 0000.0001) //          Total. X spins =              0
(PID.TID 0000.0001) //            Avg. X spins =       0.00E+00
(PID.TID 0000.0001) //         No. Y exchanges =              0
(PID.TID 0000.0001) //            Max. Y spins =              0
(PID.TID 0000.0001) //            Min. Y spins =     1000000000
(PID.TID 0000.0001) //          Total. Y spins =              0
(PID.TID 0000.0001) //            Avg. Y spins =       0.00E+00
(PID.TID 0000.0001) // o Tile number: 000003
(PID.TID 0000.0001) //         No. X exchanges =              0
(PID.TID 0000.0001) //            Max. X spins =              0
(PID.TID 0000.0001) //            Min. X spins =     1000000000
(PID.TID 0000.0001) //          Total. X spins =              0
(PID.TID 0000.0001) //            Avg. X spins =       0.00E+00
(PID.TID 0000.0001) //         No. Y exchanges =              0
(PID.TID 0000.0001) //            Max. Y spins =              0
(PID.TID 0000.0001) //            Min. Y spins =     1000000000
(PID.TID 0000.0001) //          Total. Y spins =              0
(PID.TID 0000.0001) //            Avg. Y spins =       0.00E+00
(PID.TID 0000.0001) // o Tile number: 000004
(PID.TID 0000.0001) //         No. X exchanges =              0
(PID.TID 0000.0001) //            Max. X spins =              0
(PID.TID 0000.0001) //            Min. X spins =     1000000000
(PID.TID 0000.0001) //          Total. X spins =              0
(PID.TID 0000.0001) //            Avg. X spins =       0.00E+00
(PID.TID 0000.0001) //         No. Y exchanges =              0
(PID.TID 0000.0001) //            Max. Y spins =              0
(PID.TID 0000.0001) //            Min. Y spins =     1000000000
(PID.TID 0000.0001) //          Total. Y spins =              0
(PID.TID 0000.0001) //            Avg. Y spins =       0.00E+00
(PID.TID 0000.0001) // o Tile number: 000005
(PID.TID 0000.0001) //         No. X exchanges =              0
(PID.TID 0000.0001) //            Max. X spins =              0
(PID.TID 0000.0001) //            Min. X spins =     1000000000
(PID.TID 0000.0001) //          Total. X spins =              0
(PID.TID 0000.0001) //            Avg. X spins =       0.00E+00
(PID.TID 0000.0001) //         No. Y exchanges =              0
(PID.TID 0000.0001) //            Max. Y spins =              0
(PID.TID 0000.0001) //            Min. Y spins =     1000000000
(PID.TID 0000.0001) //          Total. Y spins =              0
(PID.TID 0000.0001) //            Avg. Y spins =       0.00E+00
(PID.TID 0000.0001) // o Tile number: 000006
(PID.TID 0000.0001) //         No. X exchanges =              0
(PID.TID 0000.0001) //            Max. X spins =              0
(PID.TID 0000.0001) //            Min. X spins =     1000000000
(PID.TID 0000.0001) //          Total. X spins =              0
(PID.TID 0000.0001) //            Avg. X spins =       0.00E+00
(PID.TID 0000.0001) //         No. Y exchanges =              0
(PID.TID 0000.0001) //            Max. Y spins =              0
(PID.TID 0000.0001) //            Min. Y spins =     1000000000
(PID.TID 0000.0001) //          Total. Y spins =              0
(PID.TID 0000.0001) //            Avg. Y spins =       0.00E+00
(PID.TID 0000.0001) // o Thread number: 000001
(PID.TID 0000.0001) //            No. barriers =          27846
(PID.TID 0000.0001) //      Max. barrier spins =              1
(PID.TID 0000.0001) //      Min. barrier spins =              1
(PID.TID 0000.0001) //     Total barrier spins =          27846
(PID.TID 0000.0001) //      Avg. barrier spins =       1.00E+00
