(PID.TID 0000.0001) 
(PID.TID 0000.0001) // ======================================================
(PID.TID 0000.0001) //                      MITgcm UV
(PID.TID 0000.0001) //                      =========
(PID.TID 0000.0001) // ======================================================
(PID.TID 0000.0001) // execution environment starting up...
(PID.TID 0000.0001) 
(PID.TID 0000.0001) // MITgcmUV version:  checkpoint59c
(PID.TID 0000.0001) // Build user:        jmc
(PID.TID 0000.0001) // Build host:        faulks
(PID.TID 0000.0001) // Build date:        Tue Jun 12 11:29:22 EDT 2007
(PID.TID 0000.0001) 
(PID.TID 0000.0001) // =======================================================
(PID.TID 0000.0001) // Execution Environment parameter file "eedata"
(PID.TID 0000.0001) // =======================================================
(PID.TID 0000.0001) ># Example "eedata" file
(PID.TID 0000.0001) ># Lines beginning "#" are comments
(PID.TID 0000.0001) ># nTx - No. threads per process in X
(PID.TID 0000.0001) ># nTy - No. threads per process in Y
(PID.TID 0000.0001) > &EEPARMS
(PID.TID 0000.0001) > useCubedSphereExchange=.TRUE.,
(PID.TID 0000.0001) > nTx=1,
(PID.TID 0000.0001) > nTy=1,
(PID.TID 0000.0001) > &
(PID.TID 0000.0001) ># Note: Some systems use & as the
(PID.TID 0000.0001) ># namelist terminator. Other systems
(PID.TID 0000.0001) ># use a / character (as shown here).
(PID.TID 0000.0001) 
(PID.TID 0000.0001) // =======================================================
(PID.TID 0000.0001) // Computational Grid Specification ( see files "SIZE.h" )
(PID.TID 0000.0001) //                                  ( and "eedata"       )
(PID.TID 0000.0001) // =======================================================
(PID.TID 0000.0001)      nPx =    1 ; /* No. processes in X */
(PID.TID 0000.0001)      nPy =    1 ; /* No. processes in Y */
(PID.TID 0000.0001)      nSx =    6 ; /* No. tiles in X per process */
(PID.TID 0000.0001)      nSy =    1 ; /* No. tiles in Y per process */
(PID.TID 0000.0001)      sNx =   32 ; /* Tile size in X */
(PID.TID 0000.0001)      sNy =   32 ; /* Tile size in Y */
(PID.TID 0000.0001)      OLx =    4 ; /* Tile overlap distance in X */
(PID.TID 0000.0001)      OLy =    4 ; /* Tile overlap distance in Y */
(PID.TID 0000.0001)      nTx =    1 ; /* No. threads in X per process */
(PID.TID 0000.0001)      nTy =    1 ; /* No. threads in Y per process */
(PID.TID 0000.0001)       Nr =   15 ; /* No. levels in the vertical   */
(PID.TID 0000.0001)       nX =  192 ; /* Total domain size in X ( = nPx*nSx*sNx ) */
(PID.TID 0000.0001)       nY =   32 ; /* Total domain size in Y ( = nPy*nSy*sNy ) */
(PID.TID 0000.0001)   nTiles =    6 ; /* Total no. tiles per process ( = nSx*nSy ) */
(PID.TID 0000.0001)   nProcs =    1 ; /* Total no. processes ( = nPx*nPy ) */
(PID.TID 0000.0001) nThreads =    1 ; /* Total no. threads per process ( = nTx*nTy ) */
(PID.TID 0000.0001) usingMPI =    F ; /* Flag used to control whether MPI is in use */
(PID.TID 0000.0001)                   /*  note: To execute a program with MPI calls */
(PID.TID 0000.0001)                   /*  it must be launched appropriately e.g     */
(PID.TID 0000.0001)                   /*  "mpirun -np 64 ......"                    */
(PID.TID 0000.0001) useCoupler=   F ; /* Flag used to control communications with */
(PID.TID 0000.0001)                   /*  other model components, through a coupler */
(PID.TID 0000.0001) 
(PID.TID 0000.0001) // ======================================================
(PID.TID 0000.0001) // Mapping of tiles to threads
(PID.TID 0000.0001) // ======================================================
(PID.TID 0000.0001) // -o- Thread   1, tiles (   1:   6,   1:   1)
(PID.TID 0000.0001) 
(PID.TID 0000.0001) // ======================================================
(PID.TID 0000.0001) // Tile <-> Tile connectvity table
(PID.TID 0000.0001) // ======================================================
(PID.TID 0000.0001) // Tile number: 000001 (process no. = 000001)
(PID.TID 0000.0001) //        WEST: Tile = 000006, Process = 000001, Comm = put
(PID.TID 0000.0001) //                bi = 000006, bj = 000001
(PID.TID 0000.0001) //        EAST: Tile = 000002, Process = 000001, Comm = put
(PID.TID 0000.0001) //                bi = 000002, bj = 000001
(PID.TID 0000.0001) //       SOUTH: Tile = 000001, Process = 000001, Comm = put
(PID.TID 0000.0001) //                bi = 000001, bj = 000001
(PID.TID 0000.0001) //       NORTH: Tile = 000001, Process = 000001, Comm = put
(PID.TID 0000.0001) //                bi = 000001, bj = 000001
(PID.TID 0000.0001) // Tile number: 000002 (process no. = 000001)
(PID.TID 0000.0001) //        WEST: Tile = 000001, Process = 000001, Comm = put
(PID.TID 0000.0001) //                bi = 000001, bj = 000001
(PID.TID 0000.0001) //        EAST: Tile = 000003, Process = 000001, Comm = put
(PID.TID 0000.0001) //                bi = 000003, bj = 000001
(PID.TID 0000.0001) //       SOUTH: Tile = 000002, Process = 000001, Comm = put
(PID.TID 0000.0001) //                bi = 000002, bj = 000001
(PID.TID 0000.0001) //       NORTH: Tile = 000002, Process = 000001, Comm = put
(PID.TID 0000.0001) //                bi = 000002, bj = 000001
(PID.TID 0000.0001) // Tile number: 000003 (process no. = 000001)
(PID.TID 0000.0001) //        WEST: Tile = 000002, Process = 000001, Comm = put
(PID.TID 0000.0001) //                bi = 000002, bj = 000001
(PID.TID 0000.0001) //        EAST: Tile = 000004, Process = 000001, Comm = put
(PID.TID 0000.0001) //                bi = 000004, bj = 000001
(PID.TID 0000.0001) //       SOUTH: Tile = 000003, Process = 000001, Comm = put
(PID.TID 0000.0001) //                bi = 000003, bj = 000001
(PID.TID 0000.0001) //       NORTH: Tile = 000003, Process = 000001, Comm = put
(PID.TID 0000.0001) //                bi = 000003, bj = 000001
(PID.TID 0000.0001) // Tile number: 000004 (process no. = 000001)
(PID.TID 0000.0001) //        WEST: Tile = 000003, Process = 000001, Comm = put
(PID.TID 0000.0001) //                bi = 000003, bj = 000001
(PID.TID 0000.0001) //        EAST: Tile = 000005, Process = 000001, Comm = put
(PID.TID 0000.0001) //                bi = 000005, bj = 000001
(PID.TID 0000.0001) //       SOUTH: Tile = 000004, Process = 000001, Comm = put
(PID.TID 0000.0001) //                bi = 000004, bj = 000001
(PID.TID 0000.0001) //       NORTH: Tile = 000004, Process = 000001, Comm = put
(PID.TID 0000.0001) //                bi = 000004, bj = 000001
(PID.TID 0000.0001) // Tile number: 000005 (process no. = 000001)
(PID.TID 0000.0001) //        WEST: Tile = 000004, Process = 000001, Comm = put
(PID.TID 0000.0001) //                bi = 000004, bj = 000001
(PID.TID 0000.0001) //        EAST: Tile = 000006, Process = 000001, Comm = put
(PID.TID 0000.0001) //                bi = 000006, bj = 000001
(PID.TID 0000.0001) //       SOUTH: Tile = 000005, Process = 000001, Comm = put
(PID.TID 0000.0001) //                bi = 000005, bj = 000001
(PID.TID 0000.0001) //       NORTH: Tile = 000005, Process = 000001, Comm = put
(PID.TID 0000.0001) //                bi = 000005, bj = 000001
(PID.TID 0000.0001) // Tile number: 000006 (process no. = 000001)
(PID.TID 0000.0001) //        WEST: Tile = 000005, Process = 000001, Comm = put
(PID.TID 0000.0001) //                bi = 000005, bj = 000001
(PID.TID 0000.0001) //        EAST: Tile = 000001, Process = 000001, Comm = put
(PID.TID 0000.0001) //                bi = 000001, bj = 000001
(PID.TID 0000.0001) //       SOUTH: Tile = 000006, Process = 000001, Comm = put
(PID.TID 0000.0001) //                bi = 000006, bj = 000001
(PID.TID 0000.0001) //       NORTH: Tile = 000006, Process = 000001, Comm = put
(PID.TID 0000.0001) //                bi = 000006, bj = 000001
(PID.TID 0000.0001) 
(PID.TID 0000.0001) ===== W2 TILE TOPLOGY =====
(PID.TID 0000.0001)  TILE:    1
(PID.TID 0000.0001)       NEIGHBOUR    1 = TILE    3 Comm = PUT ( PROC =    1)
(PID.TID 0000.0001)       NEIGHBOUR    2 = TILE    6 Comm = PUT ( PROC =    1)
(PID.TID 0000.0001)       NEIGHBOUR    3 = TILE    2 Comm = PUT ( PROC =    1)
(PID.TID 0000.0001)       NEIGHBOUR    4 = TILE    5 Comm = PUT ( PROC =    1)
(PID.TID 0000.0001)  TILE:    2
(PID.TID 0000.0001)       NEIGHBOUR    1 = TILE    3 Comm = PUT ( PROC =    1)
(PID.TID 0000.0001)       NEIGHBOUR    2 = TILE    6 Comm = PUT ( PROC =    1)
(PID.TID 0000.0001)       NEIGHBOUR    3 = TILE    4 Comm = PUT ( PROC =    1)
(PID.TID 0000.0001)       NEIGHBOUR    4 = TILE    1 Comm = PUT ( PROC =    1)
(PID.TID 0000.0001)  TILE:    3
(PID.TID 0000.0001)       NEIGHBOUR    1 = TILE    5 Comm = PUT ( PROC =    1)
(PID.TID 0000.0001)       NEIGHBOUR    2 = TILE    2 Comm = PUT ( PROC =    1)
(PID.TID 0000.0001)       NEIGHBOUR    3 = TILE    4 Comm = PUT ( PROC =    1)
(PID.TID 0000.0001)       NEIGHBOUR    4 = TILE    1 Comm = PUT ( PROC =    1)
(PID.TID 0000.0001)  TILE:    4
(PID.TID 0000.0001)       NEIGHBOUR    1 = TILE    5 Comm = PUT ( PROC =    1)
(PID.TID 0000.0001)       NEIGHBOUR    2 = TILE    2 Comm = PUT ( PROC =    1)
(PID.TID 0000.0001)       NEIGHBOUR    3 = TILE    6 Comm = PUT ( PROC =    1)
(PID.TID 0000.0001)       NEIGHBOUR    4 = TILE    3 Comm = PUT ( PROC =    1)
(PID.TID 0000.0001)  TILE:    5
(PID.TID 0000.0001)       NEIGHBOUR    1 = TILE    1 Comm = PUT ( PROC =    1)
(PID.TID 0000.0001)       NEIGHBOUR    2 = TILE    4 Comm = PUT ( PROC =    1)
(PID.TID 0000.0001)       NEIGHBOUR    3 = TILE    6 Comm = PUT ( PROC =    1)
(PID.TID 0000.0001)       NEIGHBOUR    4 = TILE    3 Comm = PUT ( PROC =    1)
(PID.TID 0000.0001)  TILE:    6
(PID.TID 0000.0001)       NEIGHBOUR    1 = TILE    1 Comm = PUT ( PROC =    1)
(PID.TID 0000.0001)       NEIGHBOUR    2 = TILE    4 Comm = PUT ( PROC =    1)
(PID.TID 0000.0001)       NEIGHBOUR    3 = TILE    2 Comm = PUT ( PROC =    1)
(PID.TID 0000.0001)       NEIGHBOUR    4 = TILE    5 Comm = PUT ( PROC =    1)
(PID.TID 0000.0001) Tile    1(proc =   1) sends points i=  36:  -3, j=  29:  32
(PID.TID 0000.0001)                          to points i=  -3:   0, j=  -3:  36 in tile    3(proc =   1)
(PID.TID 0000.0001) Tile    1(proc =   1) sends points i=  -3:  36, j=   1:   4
(PID.TID 0000.0001)                          to points i=  -3:  36, j=  33:  36 in tile    6(proc =   1)
(PID.TID 0000.0001) Tile    1(proc =   1) sends points i=  29:  32, j=  -3:  36
(PID.TID 0000.0001)                          to points i=  -3:   0, j=  -3:  36 in tile    2(proc =   1)
(PID.TID 0000.0001) Tile    1(proc =   1) sends points i=   1:   4, j=  36:  -3
(PID.TID 0000.0001)                          to points i=  -3:  36, j=  33:  36 in tile    5(proc =   1)
(PID.TID 0000.0001) Tile    2(proc =   1) sends points i=  -3:  36, j=  29:  32
(PID.TID 0000.0001)                          to points i=  -3:  36, j=  -3:   0 in tile    3(proc =   1)
(PID.TID 0000.0001) Tile    2(proc =   1) sends points i=  36:  -3, j=   1:   4
(PID.TID 0000.0001)                          to points i=  33:  36, j=  -3:  36 in tile    6(proc =   1)
(PID.TID 0000.0001) Tile    2(proc =   1) sends points i=  29:  32, j=  36:  -3
(PID.TID 0000.0001)                          to points i=  -3:  36, j=  -3:   0 in tile    4(proc =   1)
(PID.TID 0000.0001) Tile    2(proc =   1) sends points i=   1:   4, j=  -3:  36
(PID.TID 0000.0001)                          to points i=  33:  36, j=  -3:  36 in tile    1(proc =   1)
(PID.TID 0000.0001) Tile    3(proc =   1) sends points i=  36:  -3, j=  29:  32
(PID.TID 0000.0001)                          to points i=  -3:   0, j=  -3:  36 in tile    5(proc =   1)
(PID.TID 0000.0001) Tile    3(proc =   1) sends points i=  -3:  36, j=   1:   4
(PID.TID 0000.0001)                          to points i=  -3:  36, j=  33:  36 in tile    2(proc =   1)
(PID.TID 0000.0001) Tile    3(proc =   1) sends points i=  29:  32, j=  -3:  36
(PID.TID 0000.0001)                          to points i=  -3:   0, j=  -3:  36 in tile    4(proc =   1)
(PID.TID 0000.0001) Tile    3(proc =   1) sends points i=   1:   4, j=  36:  -3
(PID.TID 0000.0001)                          to points i=  -3:  36, j=  33:  36 in tile    1(proc =   1)
(PID.TID 0000.0001) Tile    4(proc =   1) sends points i=  -3:  36, j=  29:  32
(PID.TID 0000.0001)                          to points i=  -3:  36, j=  -3:   0 in tile    5(proc =   1)
(PID.TID 0000.0001) Tile    4(proc =   1) sends points i=  36:  -3, j=   1:   4
(PID.TID 0000.0001)                          to points i=  33:  36, j=  -3:  36 in tile    2(proc =   1)
(PID.TID 0000.0001) Tile    4(proc =   1) sends points i=  29:  32, j=  36:  -3
(PID.TID 0000.0001)                          to points i=  -3:  36, j=  -3:   0 in tile    6(proc =   1)
(PID.TID 0000.0001) Tile    4(proc =   1) sends points i=   1:   4, j=  -3:  36
(PID.TID 0000.0001)                          to points i=  33:  36, j=  -3:  36 in tile    3(proc =   1)
(PID.TID 0000.0001) Tile    5(proc =   1) sends points i=  36:  -3, j=  29:  32
(PID.TID 0000.0001)                          to points i=  -3:   0, j=  -3:  36 in tile    1(proc =   1)
(PID.TID 0000.0001) Tile    5(proc =   1) sends points i=  -3:  36, j=   1:   4
(PID.TID 0000.0001)                          to points i=  -3:  36, j=  33:  36 in tile    4(proc =   1)
(PID.TID 0000.0001) Tile    5(proc =   1) sends points i=  29:  32, j=  -3:  36
(PID.TID 0000.0001)                          to points i=  -3:   0, j=  -3:  36 in tile    6(proc =   1)
(PID.TID 0000.0001) Tile    5(proc =   1) sends points i=   1:   4, j=  36:  -3
(PID.TID 0000.0001)                          to points i=  -3:  36, j=  33:  36 in tile    3(proc =   1)
(PID.TID 0000.0001) Tile    6(proc =   1) sends points i=  -3:  36, j=  29:  32
(PID.TID 0000.0001)                          to points i=  -3:  36, j=  -3:   0 in tile    1(proc =   1)
(PID.TID 0000.0001) Tile    6(proc =   1) sends points i=  36:  -3, j=   1:   4
(PID.TID 0000.0001)                          to points i=  33:  36, j=  -3:  36 in tile    4(proc =   1)
(PID.TID 0000.0001) Tile    6(proc =   1) sends points i=  29:  32, j=  36:  -3
(PID.TID 0000.0001)                          to points i=  -3:  36, j=  -3:   0 in tile    2(proc =   1)
(PID.TID 0000.0001) Tile    6(proc =   1) sends points i=   1:   4, j=  -3:  36
(PID.TID 0000.0001)                          to points i=  33:  36, j=  -3:  36 in tile    5(proc =   1)
(PID.TID 0000.0001) Tile    1(proc =   1)recv to points i=  -3:  36, j=  33:  36from tile   3(proc =   1)
(PID.TID 0000.0001) Tile    1(proc =   1)recv to points i=  -3:  36, j=  -3:   0from tile   6(proc =   1)
(PID.TID 0000.0001) Tile    1(proc =   1)recv to points i=  33:  36, j=  -3:  36from tile   2(proc =   1)
(PID.TID 0000.0001) Tile    1(proc =   1)recv to points i=  -3:   0, j=  -3:  36from tile   5(proc =   1)
(PID.TID 0000.0001) Tile    2(proc =   1)recv to points i=  -3:  36, j=  33:  36from tile   3(proc =   1)
(PID.TID 0000.0001) Tile    2(proc =   1)recv to points i=  -3:  36, j=  -3:   0from tile   6(proc =   1)
(PID.TID 0000.0001) Tile    2(proc =   1)recv to points i=  33:  36, j=  -3:  36from tile   4(proc =   1)
(PID.TID 0000.0001) Tile    2(proc =   1)recv to points i=  -3:   0, j=  -3:  36from tile   1(proc =   1)
(PID.TID 0000.0001) Tile    3(proc =   1)recv to points i=  -3:  36, j=  33:  36from tile   5(proc =   1)
(PID.TID 0000.0001) Tile    3(proc =   1)recv to points i=  -3:  36, j=  -3:   0from tile   2(proc =   1)
(PID.TID 0000.0001) Tile    3(proc =   1)recv to points i=  33:  36, j=  -3:  36from tile   4(proc =   1)
(PID.TID 0000.0001) Tile    3(proc =   1)recv to points i=  -3:   0, j=  -3:  36from tile   1(proc =   1)
(PID.TID 0000.0001) Tile    4(proc =   1)recv to points i=  -3:  36, j=  33:  36from tile   5(proc =   1)
(PID.TID 0000.0001) Tile    4(proc =   1)recv to points i=  -3:  36, j=  -3:   0from tile   2(proc =   1)
(PID.TID 0000.0001) Tile    4(proc =   1)recv to points i=  33:  36, j=  -3:  36from tile   6(proc =   1)
(PID.TID 0000.0001) Tile    4(proc =   1)recv to points i=  -3:   0, j=  -3:  36from tile   3(proc =   1)
(PID.TID 0000.0001) Tile    5(proc =   1)recv to points i=  -3:  36, j=  33:  36from tile   1(proc =   1)
(PID.TID 0000.0001) Tile    5(proc =   1)recv to points i=  -3:  36, j=  -3:   0from tile   4(proc =   1)
(PID.TID 0000.0001) Tile    5(proc =   1)recv to points i=  33:  36, j=  -3:  36from tile   6(proc =   1)
(PID.TID 0000.0001) Tile    5(proc =   1)recv to points i=  -3:   0, j=  -3:  36from tile   3(proc =   1)
(PID.TID 0000.0001) Tile    6(proc =   1)recv to points i=  -3:  36, j=  33:  36from tile   1(proc =   1)
(PID.TID 0000.0001) Tile    6(proc =   1)recv to points i=  -3:  36, j=  -3:   0from tile   4(proc =   1)
(PID.TID 0000.0001) Tile    6(proc =   1)recv to points i=  33:  36, j=  -3:  36from tile   2(proc =   1)
(PID.TID 0000.0001) Tile    6(proc =   1)recv to points i=  -3:   0, j=  -3:  36from tile   5(proc =   1)
(PID.TID 0000.0001) // =======================================================
(PID.TID 0000.0001) // Model parameter file "data"
(PID.TID 0000.0001) // =======================================================
(PID.TID 0000.0001) ># ====================
(PID.TID 0000.0001) ># | Model parameters |
(PID.TID 0000.0001) ># ====================
(PID.TID 0000.0001) >#
(PID.TID 0000.0001) ># Continuous equation parameters
(PID.TID 0000.0001) > &PARM01
(PID.TID 0000.0001) > tRef=15*20.,
(PID.TID 0000.0001) > sRef=15*35.,
(PID.TID 0000.0001) > viscAh =3.E5,
(PID.TID 0000.0001) > viscAr =1.E-3,
(PID.TID 0000.0001) > diffKhT=0.,
(PID.TID 0000.0001) > diffK4T=0.,
(PID.TID 0000.0001) > diffKrT=3.E-5,
(PID.TID 0000.0001) > diffKhS=0.,
(PID.TID 0000.0001) > diffK4S=0.,
(PID.TID 0000.0001) > diffKrS=3.E-5,
(PID.TID 0000.0001) > ivdc_kappa=10.,
(PID.TID 0000.0001) > implicitDiffusion=.TRUE.,
(PID.TID 0000.0001) > gravity=9.81,
(PID.TID 0000.0001) > rhonil=1035.,
(PID.TID 0000.0001) > rhoConstFresh=1000.,
(PID.TID 0000.0001) > eosType='JMD95Z',
(PID.TID 0000.0001) > staggerTimeStep=.TRUE.,
(PID.TID 0000.0001) > vectorInvariantMomentum=.TRUE.,
(PID.TID 0000.0001) > implicitFreeSurface=.TRUE.,
(PID.TID 0000.0001) > exactConserv=.TRUE.,
(PID.TID 0000.0001) > select_rStar=2,
(PID.TID 0000.0001) > nonlinFreeSurf=4,
(PID.TID 0000.0001) > hFacInf=0.2,
(PID.TID 0000.0001) > hFacSup=2.0,
(PID.TID 0000.0001) > useRealFreshWaterFlux=.TRUE.,
(PID.TID 0000.0001) > hFacMin=.1,
(PID.TID 0000.0001) > hFacMinDr=20.,
(PID.TID 0000.0001) >#tempAdvScheme=77,
(PID.TID 0000.0001) >#saltAdvScheme=77,
(PID.TID 0000.0001) > readBinaryPrec=64,
(PID.TID 0000.0001) >#writeBinaryPrec=64,
(PID.TID 0000.0001) >#debugLevel = 2,
(PID.TID 0000.0001) > &
(PID.TID 0000.0001) >
(PID.TID 0000.0001) ># Elliptic solver parameters
(PID.TID 0000.0001) > &PARM02
(PID.TID 0000.0001) > cg2dMaxIters=200,
(PID.TID 0000.0001) >#cg2dTargetResidual=1.E-9,
(PID.TID 0000.0001) > cg2dTargetResWunit=1.E-14,
(PID.TID 0000.0001) > &
(PID.TID 0000.0001) >
(PID.TID 0000.0001) ># Time stepping parameters
(PID.TID 0000.0001) > &PARM03
(PID.TID 0000.0001) > nIter0=0,
(PID.TID 0000.0001) > nTimeSteps=10,
(PID.TID 0000.0001) >#endTime=31104000.,
(PID.TID 0000.0001) > deltaTmom   =1200.,
(PID.TID 0000.0001) > deltaTtracer=86400.,
(PID.TID 0000.0001) > deltaTfreesurf=86400.,
(PID.TID 0000.0001) > deltaTClock =86400.,
(PID.TID 0000.0001) > abEps = 0.1,
(PID.TID 0000.0001) > forcing_In_AB=.FALSE.,
(PID.TID 0000.0001) > pChkptFreq   =3110400000.,
(PID.TID 0000.0001) > chkptFreq    = 155520000.,
(PID.TID 0000.0001) >#tave_lastIter=0.,
(PID.TID 0000.0001) >#taveFreq     = 2592000.,
(PID.TID 0000.0001) >#dumpFreq     =  864000.,
(PID.TID 0000.0001) > monitorFreq  = 15552000.,
(PID.TID 0000.0001) > periodicExternalForcing=.TRUE.,
(PID.TID 0000.0001) > externForcingPeriod=2592000.,
(PID.TID 0000.0001) > externForcingCycle=31104000.,
(PID.TID 0000.0001) ># 6 months restoring timescale for temperature
(PID.TID 0000.0001) >#tauThetaClimRelax = 15552000.,
(PID.TID 0000.0001) ># 2 months restoring timescale for tsalinity
(PID.TID 0000.0001) >#tauSaltClimRelax = 5184000.,
(PID.TID 0000.0001) >#latBandClimRelax=60.,
(PID.TID 0000.0001) > monitorFreq =1.,
(PID.TID 0000.0001) > &
(PID.TID 0000.0001) >
(PID.TID 0000.0001) ># Gridding parameters
(PID.TID 0000.0001) > &PARM04
(PID.TID 0000.0001) > usingCurvilinearGrid=.TRUE.,
(PID.TID 0000.0001) > horizGridFile='grid_cs32',
(PID.TID 0000.0001) > delR= 50., 70., 100., 140., 190.,
(PID.TID 0000.0001) >       240., 290., 340., 390., 440.,
(PID.TID 0000.0001) >       490., 540., 590., 640., 690.,
(PID.TID 0000.0001) > &
(PID.TID 0000.0001) >
(PID.TID 0000.0001) ># Input datasets
(PID.TID 0000.0001) > &PARM05
(PID.TID 0000.0001) > bathyFile      ='bathy_Hmin50.bin',
(PID.TID 0000.0001) > hydrogThetaFile='lev_T_cs_15k.bin',
(PID.TID 0000.0001) > hydrogSaltFile ='lev_S_cs_15k.bin',
(PID.TID 0000.0001) > &
(PID.TID 0000.0001) 
(PID.TID 0000.0001) S/R INI_PARMS ; starts to read PARM01
(PID.TID 0000.0001) S/R INI_PARMS ; read PARM01 : OK
(PID.TID 0000.0001) S/R INI_PARMS ; starts to read PARM02
(PID.TID 0000.0001) S/R INI_PARMS ; read PARM02 : OK
(PID.TID 0000.0001) S/R INI_PARMS ; starts to read PARM03
(PID.TID 0000.0001) S/R INI_PARMS ; read PARM03 : OK
(PID.TID 0000.0001) S/R INI_PARMS ; starts to read PARM04
(PID.TID 0000.0001) S/R INI_PARMS ; read PARM04 : OK
(PID.TID 0000.0001) S/R INI_PARMS ; starts to read PARM05
(PID.TID 0000.0001) S/R INI_PARMS ; read PARM05 : OK
(PID.TID 0000.0001)  PACKAGES_BOOT: opening data.pkg
(PID.TID 0000.0001)  OPEN_COPY_DATA_FILE: opening file data.pkg
(PID.TID 0000.0001) // =======================================================
(PID.TID 0000.0001) // Parameter file "data.pkg"
(PID.TID 0000.0001) // =======================================================
(PID.TID 0000.0001) ># Packages
(PID.TID 0000.0001) > &PACKAGES
(PID.TID 0000.0001) > useGMRedi=.TRUE.,
(PID.TID 0000.0001) > useEXF   =.TRUE.,
(PID.TID 0000.0001) > useSEAICE=.TRUE.,
(PID.TID 0000.0001) > useThSIce=.TRUE.,
(PID.TID 0000.0001) >#useBulkforce=.TRUE.,
(PID.TID 0000.0001) > useDiagnostics=.TRUE.,
(PID.TID 0000.0001) >#useMNC = .TRUE.,
(PID.TID 0000.0001) > &
(PID.TID 0000.0001) 
(PID.TID 0000.0001)  PACKAGES_BOOT: finished reading data.pkg
(PID.TID 0000.0001) CAL_READPARMS: opening data.cal
(PID.TID 0000.0001)  OPEN_COPY_DATA_FILE: opening file data.cal
(PID.TID 0000.0001) // =======================================================
(PID.TID 0000.0001) // Parameter file "data.cal"
(PID.TID 0000.0001) // =======================================================
(PID.TID 0000.0001) >#
(PID.TID 0000.0001) ># *******************
(PID.TID 0000.0001) ># Calendar Parameters
(PID.TID 0000.0001) ># *******************
(PID.TID 0000.0001) > &CAL_NML
(PID.TID 0000.0001) > TheCalendar='model',
(PID.TID 0000.0001) > startDate_1=00010101,
(PID.TID 0000.0001) > startDate_2=000000,
(PID.TID 0000.0001) > &
(PID.TID 0000.0001) 
(PID.TID 0000.0001) CAL_READPARMS: finished reading data.cal
(PID.TID 0000.0001) 
(PID.TID 0000.0001) // =======================================================
(PID.TID 0000.0001) // Calendar configuration >>> START <<<
(PID.TID 0000.0001) // =======================================================
(PID.TID 0000.0001) 
(PID.TID 0000.0001) Calendar version: 0.2.0
(PID.TID 0000.0001) 
(PID.TID 0000.0001) startTime =   /* Start time of the model integration [s] */
(PID.TID 0000.0001)                 0.000000000000000E+00
(PID.TID 0000.0001)     ;
(PID.TID 0000.0001) endTime =   /* End time of the model integration [s] */
(PID.TID 0000.0001)                 8.640000000000000E+05
(PID.TID 0000.0001)     ;
(PID.TID 0000.0001) deltatclock =   /* Time interval for a model forward step [s] */
(PID.TID 0000.0001)                 8.640000000000000E+04
(PID.TID 0000.0001)     ;
(PID.TID 0000.0001) usingGregorianCalendar =  /* Calendar Type: Gregorian Calendar */
(PID.TID 0000.0001)                   F
(PID.TID 0000.0001)     ;
(PID.TID 0000.0001) usingJulianCalendar =  /* Calendar Type: Julian Calendar */
(PID.TID 0000.0001)                   F
(PID.TID 0000.0001)     ;
(PID.TID 0000.0001) usingModelCalendar =  /* Calendar Type: Model Calendar */
(PID.TID 0000.0001)                   T
(PID.TID 0000.0001)     ;
(PID.TID 0000.0001) usingNoCalendar =  /* Calendar Type: No Calendar */
(PID.TID 0000.0001)                   F
(PID.TID 0000.0001)     ;
(PID.TID 0000.0001) modelstartdate (YYYYMMDD) =   /* Model start date YYYY-MM-DD  */
(PID.TID 0000.0001)                   10101
(PID.TID 0000.0001)     ;
(PID.TID 0000.0001) modelstartdate (HHMMSS) =   /* Model start date HH-MM-SS  */
(PID.TID 0000.0001)                       0
(PID.TID 0000.0001)     ;
(PID.TID 0000.0001) modelenddate (YYYYMMDD) =   /* Model end date YYYY-MM-DD  */
(PID.TID 0000.0001)                   10111
(PID.TID 0000.0001)     ;
(PID.TID 0000.0001) modelenddate (HHMMSS) =   /* Model end date HH-MM-SS  */
(PID.TID 0000.0001)                       0
(PID.TID 0000.0001)     ;
(PID.TID 0000.0001) intyears =   /* Number of calendar years affected by the integration  */
(PID.TID 0000.0001)                       1
(PID.TID 0000.0001)     ;
(PID.TID 0000.0001) intmonths =   /* Number of calendar months affected by the integration  */
(PID.TID 0000.0001)                       1
(PID.TID 0000.0001)     ;
(PID.TID 0000.0001) intdays =   /* Number of calendar days affected by the integration  */
(PID.TID 0000.0001)                      10
(PID.TID 0000.0001)     ;
(PID.TID 0000.0001) nIter0 =   /* Base timestep number  */
(PID.TID 0000.0001)                       0
(PID.TID 0000.0001)     ;
(PID.TID 0000.0001) nEndIter =   /* Final timestep number  */
(PID.TID 0000.0001)                      10
(PID.TID 0000.0001)     ;
(PID.TID 0000.0001) nTimeSteps =   /* Number of model timesteps  */
(PID.TID 0000.0001)                      10
(PID.TID 0000.0001)     ;
(PID.TID 0000.0001) 
(PID.TID 0000.0001) // =======================================================
(PID.TID 0000.0001) // Calendar configuration  >>> END <<<
(PID.TID 0000.0001) // =======================================================
(PID.TID 0000.0001) 
(PID.TID 0000.0001)  GM_READPARMS: opening data.gmredi
(PID.TID 0000.0001)  OPEN_COPY_DATA_FILE: opening file data.gmredi
(PID.TID 0000.0001) // =======================================================
(PID.TID 0000.0001) // Parameter file "data.gmredi"
(PID.TID 0000.0001) // =======================================================
(PID.TID 0000.0001) ># GM+Redi package parameters:
(PID.TID 0000.0001) >
(PID.TID 0000.0001) >#-from MOM :
(PID.TID 0000.0001) ># GM_background_K: 	G & Mc.W  diffusion coefficient
(PID.TID 0000.0001) ># GM_maxSlope    :	max slope of isopycnals
(PID.TID 0000.0001) ># GM_Scrit       :	transition for scaling diffusion coefficient
(PID.TID 0000.0001) ># GM_Sd          :	half width scaling for diffusion coefficient
(PID.TID 0000.0001) ># GM_taper_scheme:	slope clipping or one of the tapering schemes
(PID.TID 0000.0001) ># GM_Kmin_horiz  :	horizontal diffusion minimum value
(PID.TID 0000.0001) >
(PID.TID 0000.0001) >#-Option parameters (needs to "define" options in GMREDI_OPTIONS.h")
(PID.TID 0000.0001) ># GM_isopycK     :	isopycnal diffusion coefficient (default=GM_background_K)
(PID.TID 0000.0001) ># GM_AdvForm     :	turn on GM Advective form       (default=Skew flux form)
(PID.TID 0000.0001) >
(PID.TID 0000.0001) > &GM_PARM01
(PID.TID 0000.0001) >  GM_Visbeck_alpha   = 0.,
(PID.TID 0000.0001) >  GM_background_K    = 800.,
(PID.TID 0000.0001) ># GM_AdvForm         = .TRUE.,
(PID.TID 0000.0001) ># GM_background_K    = 10.,
(PID.TID 0000.0001) ># GM_Visbeck_alpha   = 1.e-2,
(PID.TID 0000.0001) >  GM_Visbeck_length  = 2.e+5,
(PID.TID 0000.0001) >  GM_Visbeck_depth   = 1.e+3,
(PID.TID 0000.0001) >  GM_Visbeck_maxval_K= 2.5e+3,
(PID.TID 0000.0001) >  GM_taper_scheme    = 'gkw91',
(PID.TID 0000.0001) ># GM_Small_Number    = 1.e-18,
(PID.TID 0000.0001) >  GM_maxSlope        = 1.e-2,
(PID.TID 0000.0001) >  GM_Kmin_horiz      = 50.,
(PID.TID 0000.0001) >  GM_Scrit           = 4.e-3,
(PID.TID 0000.0001) >  GM_Sd              = 1.e-3,
(PID.TID 0000.0001) > &
(PID.TID 0000.0001) >
(PID.TID 0000.0001) 
(PID.TID 0000.0001)  GM_READPARMS: finished reading data.gmredi
(PID.TID 0000.0001) 
(PID.TID 0000.0001)  SEAICE_READPARMS: opening data.seaice
(PID.TID 0000.0001)  OPEN_COPY_DATA_FILE: opening file data.seaice
(PID.TID 0000.0001) // =======================================================
(PID.TID 0000.0001) // Parameter file "data.seaice"
(PID.TID 0000.0001) // =======================================================
(PID.TID 0000.0001) ># SEAICE parameters
(PID.TID 0000.0001) > &SEAICE_PARM01
(PID.TID 0000.0001) >#SEAICE_monFreq = 2592000.,
(PID.TID 0000.0001) >#SEAICEwriteState   = .TRUE.,
(PID.TID 0000.0001) >#SEAICE_clipVelocities=.FALSE.,
(PID.TID 0000.0001) >#SEAICE_maskRHS   = .TRUE.,
(PID.TID 0000.0001) > LSR_ERROR        = 1.E-12,
(PID.TID 0000.0001) >#SEAICE_deltaTevp = 60.,
(PID.TID 0000.0001) >#SEAICEuseDynamics = .FALSE.,
(PID.TID 0000.0001) > &
(PID.TID 0000.0001) 
(PID.TID 0000.0001)  SEAICE_READPARMS: finished reading data.seaice
(PID.TID 0000.0001) 
(PID.TID 0000.0001) // =======================================================
(PID.TID 0000.0001) // Seaice configuration (SEAICE_PARM01) >>> START <<<
(PID.TID 0000.0001) // =======================================================
(PID.TID 0000.0001) 
(PID.TID 0000.0001) SEAICEwriteState  = /* write sea ice state to file */
(PID.TID 0000.0001)                   F
(PID.TID 0000.0001)     ;
(PID.TID 0000.0001) SEAICEuseDYNAMICS = /* use dynamics */
(PID.TID 0000.0001)                   T
(PID.TID 0000.0001)     ;
(PID.TID 0000.0001) SEAICEuseEVP      = /* use EVP solver */
(PID.TID 0000.0001)                   F
(PID.TID 0000.0001)     ;
(PID.TID 0000.0001) SEAICE_no_slip    = /* no slip boundary conditions */
(PID.TID 0000.0001)                   F
(PID.TID 0000.0001)     ;
(PID.TID 0000.0001) SEAICE_maskRHS    = /* mask RHS of solver */
(PID.TID 0000.0001)                   F
(PID.TID 0000.0001)     ;
(PID.TID 0000.0001) SEAICE_clipVeloctities = /* impose max. vels. */
(PID.TID 0000.0001)                   T
(PID.TID 0000.0001)     ;
(PID.TID 0000.0001) useHB87stressCoupling  = /* altern. ice-ocean stress */
(PID.TID 0000.0001)                   F
(PID.TID 0000.0001)     ;
(PID.TID 0000.0001) usePW79thermodynamics  = /* default 0-layer TD */
(PID.TID 0000.0001)                   F
(PID.TID 0000.0001)     ;
(PID.TID 0000.0001) SEAICEadvHeff = /* advect effective ice thickness */
(PID.TID 0000.0001)                   F
(PID.TID 0000.0001)     ;
(PID.TID 0000.0001) SEAICEadvArea = /* advect fractional ice area */
(PID.TID 0000.0001)                   F
(PID.TID 0000.0001)     ;
(PID.TID 0000.0001) SEAICEadvSnow = /* advect snow layer together with ice */
(PID.TID 0000.0001)                   F
(PID.TID 0000.0001)     ;
(PID.TID 0000.0001) SEAICEuseFlooding = /* turn submerged snow into ice */
(PID.TID 0000.0001)                   F
(PID.TID 0000.0001)     ;
(PID.TID 0000.0001) LAD               = /* time stepping scheme */
(PID.TID 0000.0001)                       2
(PID.TID 0000.0001)     ;
(PID.TID 0000.0001) IMAX_TICE         = /* iterations for ice heat budget */
(PID.TID 0000.0001)                      10
(PID.TID 0000.0001)     ;
(PID.TID 0000.0001) SEAICEadvScheme   = /* advection scheme for thickness */
(PID.TID 0000.0001)                       2
(PID.TID 0000.0001)     ;
(PID.TID 0000.0001) SEAICEuseFluxForm = /* advection in FV flux form */
(PID.TID 0000.0001)                   F
(PID.TID 0000.0001)     ;
(PID.TID 0000.0001) SEAICE_deltaTtherm= /* thermodynamic timestep */
(PID.TID 0000.0001)                 8.640000000000000E+04
(PID.TID 0000.0001)     ;
(PID.TID 0000.0001) SEAICE_deltaTdyn  = /* dynamic timestep */
(PID.TID 0000.0001)                 8.640000000000000E+04
(PID.TID 0000.0001)     ;
(PID.TID 0000.0001) SEAICE_deltaTevp  = /* EVP timestep */
(PID.TID 0000.0001)                 1.234567000000000E+05
(PID.TID 0000.0001)     ;
(PID.TID 0000.0001) SEAICE_elasticParm= /* EVP elastic parameter */
(PID.TID 0000.0001)                 3.333333333333333E-01
(PID.TID 0000.0001)     ;
(PID.TID 0000.0001) SEAICE_evpTauRelax= /* EVP relaxation timescale */
(PID.TID 0000.0001)                -1.000000000000000E+00
(PID.TID 0000.0001)     ;
(PID.TID 0000.0001) SEAICE_evpDampC   = /* EVP damping parameter */
(PID.TID 0000.0001)                -1.000000000000000E+00
(PID.TID 0000.0001)     ;
(PID.TID 0000.0001) SEAICE_monFreq  = /* monitor frequency */
(PID.TID 0000.0001)                 1.000000000000000E+00
(PID.TID 0000.0001)     ;
(PID.TID 0000.0001) SEAICE_dumpFreq   = /* dump frequency */
(PID.TID 0000.0001)                 0.000000000000000E+00
(PID.TID 0000.0001)     ;
(PID.TID 0000.0001) SEAICE_taveFreq   = /* time-averaging frequency */
(PID.TID 0000.0001)                 0.000000000000000E+00
(PID.TID 0000.0001)     ;
(PID.TID 0000.0001) SEAICE_mon_stdio  = /* write monitor to std-outp */
(PID.TID 0000.0001)                   T
(PID.TID 0000.0001)     ;
(PID.TID 0000.0001) SEAICE_dump_mdsio = /* write snap-shot   using MDSIO */
(PID.TID 0000.0001)                   T
(PID.TID 0000.0001)     ;
(PID.TID 0000.0001) SEAICE_tave_mdsio = /* write TimeAverage using MDSIO */
(PID.TID 0000.0001)                   T
(PID.TID 0000.0001)     ;
(PID.TID 0000.0001) SEAICE_mon_mnc    = /* write monitor to netcdf file */
(PID.TID 0000.0001)                   F
(PID.TID 0000.0001)     ;
(PID.TID 0000.0001) SEAICE_dump_mnc   = /* write snap-shot   using MNC */
(PID.TID 0000.0001)                   F
(PID.TID 0000.0001)     ;
(PID.TID 0000.0001) SEAICE_tave_mnc   = /* write TimeAverage using MNC */
(PID.TID 0000.0001)                   F
(PID.TID 0000.0001)     ;
(PID.TID 0000.0001) SEAICE_initialHEFF= /* initial sea-ice thickness */
(PID.TID 0000.0001)                 0.000000000000000E+00
(PID.TID 0000.0001)     ;
(PID.TID 0000.0001) SEAICE_drag       = /* air-ice drag coefficient */
(PID.TID 0000.0001)                 2.000000000000000E-03
(PID.TID 0000.0001)     ;
(PID.TID 0000.0001) OCEAN_drag        = /* air-ocean drag coefficient */
(PID.TID 0000.0001)                 1.000000000000000E-03
(PID.TID 0000.0001)     ;
(PID.TID 0000.0001) SEAICE_waterDrag  = /* water-ice drag * density */
(PID.TID 0000.0001)                 5.500000000000000E+00
(PID.TID 0000.0001)     ;
(PID.TID 0000.0001) SEAICE_dryIceAlb  = /* winter albedo */
(PID.TID 0000.0001)                 7.500000000000000E-01
(PID.TID 0000.0001)     ;
(PID.TID 0000.0001) SEAICE_wetIceAlb  = /* summer albedo */
(PID.TID 0000.0001)                 6.600000000000000E-01
(PID.TID 0000.0001)     ;
(PID.TID 0000.0001) SEAICE_drySnowAlb = /* dry snow albedo */
(PID.TID 0000.0001)                 8.400000000000000E-01
(PID.TID 0000.0001)     ;
(PID.TID 0000.0001) SEAICE_wetSnowAlb = /* wet snow albedo */
(PID.TID 0000.0001)                 7.000000000000000E-01
(PID.TID 0000.0001)     ;
(PID.TID 0000.0001) SEAICE_waterAlbedo= /* water albedo */
(PID.TID 0000.0001)                 1.000000000000000E-01
(PID.TID 0000.0001)     ;
(PID.TID 0000.0001) SEAICE_strength   = /* sea-ice strength Pstar */
(PID.TID 0000.0001)                 2.750000000000000E+04
(PID.TID 0000.0001)     ;
(PID.TID 0000.0001) SEAICE_sensHeat   = /* sensible heat transfer */
(PID.TID 0000.0001)                 2.284000000000000E+00
(PID.TID 0000.0001)     ;
(PID.TID 0000.0001) SEAICE_latentWater= /* latent heat transfer for water */
(PID.TID 0000.0001)                 5.687500000000000E+03
(PID.TID 0000.0001)     ;
(PID.TID 0000.0001) SEAICE_latentIce  = /* latent heat transfer for ice */
(PID.TID 0000.0001)                 6.447400000000000E+03
(PID.TID 0000.0001)     ;
(PID.TID 0000.0001) SEAICE_iceConduct = /* sea-ice conductivity */
(PID.TID 0000.0001)                 2.165600000000000E+00
(PID.TID 0000.0001)     ;
(PID.TID 0000.0001) SEAICE_snowConduct= /* snow conductivity */
(PID.TID 0000.0001)                 3.100000000000000E-01
(PID.TID 0000.0001)     ;
(PID.TID 0000.0001) SEAICE_emissivity = /* Stefan-Boltzman * emissivity */
(PID.TID 0000.0001)                 5.500000000000000E-08
(PID.TID 0000.0001)     ;
(PID.TID 0000.0001) SEAICE_snowThick  = /* cutoff snow thickness */
(PID.TID 0000.0001)                 1.500000000000000E-01
(PID.TID 0000.0001)     ;
(PID.TID 0000.0001) SEAICE_shortwave  = /* penetration shortwave radiation */
(PID.TID 0000.0001)                 3.000000000000000E-01
(PID.TID 0000.0001)     ;
(PID.TID 0000.0001) SEAICE_freeze     = /* freezing temp. of sea water */
(PID.TID 0000.0001)                -1.960000000000000E+00
(PID.TID 0000.0001)     ;
(PID.TID 0000.0001) Initial sea-ice concentration is read from file:
(PID.TID 0000.0001)    >>    <<
(PID.TID 0000.0001) Initial sea-ice thickness is read from file:
(PID.TID 0000.0001)    >>    <<
(PID.TID 0000.0001)     ;
(PID.TID 0000.0001) LSR_ERROR         = /* sets accuracy of LSR solver */
(PID.TID 0000.0001)                 1.000000000000000E-12
(PID.TID 0000.0001)     ;
(PID.TID 0000.0001) DIFF1             = /* parameter used in advect.F */
(PID.TID 0000.0001)                 4.000000000000000E-03
(PID.TID 0000.0001)     ;
(PID.TID 0000.0001) A22               = /* parameter used in growth.F */
(PID.TID 0000.0001)                 1.500000000000000E-01
(PID.TID 0000.0001)     ;
(PID.TID 0000.0001) HO                = /* demarcation ice thickness */
(PID.TID 0000.0001)                 5.000000000000000E-01
(PID.TID 0000.0001)     ;
(PID.TID 0000.0001) MAX_HEFF          = /* maximum ice thickness */
(PID.TID 0000.0001)                 1.000000000000000E+01
(PID.TID 0000.0001)     ;
(PID.TID 0000.0001) MIN_ATEMP         = /* minimum air temperature */
(PID.TID 0000.0001)                -5.000000000000000E+01
(PID.TID 0000.0001)     ;
(PID.TID 0000.0001) MIN_LWDOWN        = /* minimum downward longwave */
(PID.TID 0000.0001)                 6.000000000000000E+01
(PID.TID 0000.0001)     ;
(PID.TID 0000.0001) MAX_TICE          = /* maximum ice temperature */
(PID.TID 0000.0001)                 3.000000000000000E+01
(PID.TID 0000.0001)     ;
(PID.TID 0000.0001) MIN_TICE          = /* minimum ice temperature */
(PID.TID 0000.0001)                -5.000000000000000E+01
(PID.TID 0000.0001)     ;
(PID.TID 0000.0001) SEAICE_EPS        = /* reduce derivative singularities */
(PID.TID 0000.0001)                 1.000000000000000E-10
(PID.TID 0000.0001)     ;
(PID.TID 0000.0001) // =======================================================
(PID.TID 0000.0001) // Seaice configuration (SEAICE_PARM01) >>> END <<<
(PID.TID 0000.0001) // =======================================================
(PID.TID 0000.0001)  THSICE_READPARMS: opening data.ice
(PID.TID 0000.0001)  OPEN_COPY_DATA_FILE: opening file data.ice
(PID.TID 0000.0001) // =======================================================
(PID.TID 0000.0001) // Parameter file "data.ice"
(PID.TID 0000.0001) // =======================================================
(PID.TID 0000.0001) > &THSICE_CONST
(PID.TID 0000.0001) > Tf0kel  = 273.15,
(PID.TID 0000.0001) >#- with LANL albedo:
(PID.TID 0000.0001) >#albWarmSnow= 0.75,
(PID.TID 0000.0001) >#- for full ice-fraction :
(PID.TID 0000.0001) >#iceMaskMin = 1.,
(PID.TID 0000.0001) >#hThinIce   = 0.01,
(PID.TID 0000.0001) >#fracEnMelt = 0.,
(PID.TID 0000.0001) >#hThickIce  = 100.,
(PID.TID 0000.0001) >#- with fractional ice:
(PID.TID 0000.0001) > iceMaskMin = 0.05,
(PID.TID 0000.0001) > hiMax      = 10.,
(PID.TID 0000.0001) > hsMax      = 10.,
(PID.TID 0000.0001) > dhSnowLin  = 0.1,
(PID.TID 0000.0001) > fracEnFreez= 0.4,
(PID.TID 0000.0001) > hNewIceMax = 1.,
(PID.TID 0000.0001) >#albIceMax  = 0.7,
(PID.TID 0000.0001) >#albIceMin  = 0.7,
(PID.TID 0000.0001) >#albColdSnow= 0.85,
(PID.TID 0000.0001) > albWarmSnow= 0.60,
(PID.TID 0000.0001) > tempSnowAlb= -5.,
(PID.TID 0000.0001) > albOldSnow = 0.60,
(PID.TID 0000.0001) >#hNewSnowAge= 2.e-3,
(PID.TID 0000.0001) >#snowAgTime = 4320000.,
(PID.TID 0000.0001) > albIceMax  = 0.60,
(PID.TID 0000.0001) >#albIceMin  = 0.20,
(PID.TID 0000.0001) > hAlbIce    = 0.44,
(PID.TID 0000.0001) > hAlbSnow   = 0.15,
(PID.TID 0000.0001) > &
(PID.TID 0000.0001) >
(PID.TID 0000.0001) > &THSICE_PARM01
(PID.TID 0000.0001) >#StartIceModel=1,
(PID.TID 0000.0001) > thSIceAdvScheme=77,
(PID.TID 0000.0001) >#thSIce_diffK   =800.,
(PID.TID 0000.0001) > stressReduction=0.,
(PID.TID 0000.0001) >#thSIce_taveFreq=2592000.,
(PID.TID 0000.0001) >#thSIce_diagFreq=2592000.,
(PID.TID 0000.0001) >#thSIce_monFreq =2592000.,
(PID.TID 0000.0001) > &
(PID.TID 0000.0001) >
(PID.TID 0000.0001) 
(PID.TID 0000.0001)  THSICE_READPARMS: read THSICE_CONST
(PID.TID 0000.0001)  THSICE_READPARMS: read THSICE_PARM01
 ThSI: rhos      =  330.
 ThSI: rhoi      =  900.
 ThSI: rhosw     =  1035.
 ThSI: rhofw     =  1000.
 ThSI: rhoiw     =  135.
 ThSI: cpIce     =  2106.
 ThSI: cpWater   =  3994.
 ThSI: kIce      =  2.03
 ThSI: kSnow     =  0.3
 ThSI: bMeltCoef =  0.006
 ThSI: Lfresh    =  334000.
 ThSI: qsnow     =  334000.
 ThSI: albColdSnow=  0.85
 ThSI: albWarmSnow=  0.6
 ThSI: tempSnowAlb= -5.
 ThSI: albOldSnow =  0.6
 ThSI: hNewSnowAge=  0.002
 ThSI: snowAgTime =  4320000.
 ThSI: albIceMax =  0.6
 ThSI: albIceMin =  0.2
 ThSI: hAlbIce   =  0.44
 ThSI: hAlbSnow  =  0.15
 ThSI: i0swFrac  =  0.3
 ThSI: ksolar    =  1.5
 ThSI: dhSnowLin =  0.1
 ThSI: saltIce   =  4.
 ThSI: S_winton  =  1.
 ThSI: mu_Tf     =  0.054
 ThSI: Tf0kel    =  273.15
 ThSI: Tmlt1     = -0.054
 ThSI: Terrmax   =  0.5
 ThSI: nitMaxTsf = 20
 ThSI: hIceMin   =  0.01
 ThSI: hiMax     =  10.
 ThSI: hsMax     =  10.
 ThSI: iceMaskMax =  1.
 ThSI: iceMaskMin =  0.05
 ThSI: fracEnMelt =  0.4
 ThSI: fracEnFreez=  0.4
 ThSI: hThinIce   =  0.2
 ThSI: hThickIce  =  2.5
 ThSI: hNewIceMax =  1.
 ThSI: stressReduction =  0.
 ThSI: thSIceAdvScheme = 77
 ThSI: thSIce_diffK  =  0.
 ThSI: thSIce_deltaT =  86400.
 ThSI: ocean_deltaT  =  86400.
 ThSI: stepFwd_oceMxL= F
 ThSI: tauRelax_MxL  =  0.
 ThSI: hMxL_default  =  50.
 ThSI: sMxL_default  =  35.
 ThSI: vMxL_default  =  0.05
 ThSI: thSIce_taveFreq=  0.
 ThSI: thSIce_diagFreq=  0.
 ThSI: thSIce_monFreq =  1.
 ThSI: startIceModel = 0
(PID.TID 0000.0001) EXF_READPARMS: opening data.exf
(PID.TID 0000.0001)  OPEN_COPY_DATA_FILE: opening file data.exf
(PID.TID 0000.0001) // =======================================================
(PID.TID 0000.0001) // Parameter file "data.exf"
(PID.TID 0000.0001) // =======================================================
(PID.TID 0000.0001) ># $Header: /u/gcmpack/MITgcm/verification/global_ocean.cs32x15/results/output.icedyn.txt,v 1.1 2007/06/12 16:04:15 jmc Exp $
(PID.TID 0000.0001) >#
(PID.TID 0000.0001) ># *********************
(PID.TID 0000.0001) ># External Forcing Data
(PID.TID 0000.0001) ># *********************
(PID.TID 0000.0001) > &EXF_NML_01
(PID.TID 0000.0001) >#
(PID.TID 0000.0001) >#useExfCheckRange  = .TRUE.,
(PID.TID 0000.0001) >#useStabilityFct_overIce=.TRUE.,
(PID.TID 0000.0001) >#snow_emissivity   = 0.98,
(PID.TID 0000.0001) >#ice_emissivity    = 0.98,
(PID.TID 0000.0001) > ocean_emissivity  = 1.,
(PID.TID 0000.0001) > atmrho            = 1.22,
(PID.TID 0000.0001) > humid_fac         = .608,
(PID.TID 0000.0001) > ht                = 10.,
(PID.TID 0000.0001) > exf_albedo        = 0.066,
(PID.TID 0000.0001) >#readStressOnAgrid = .TRUE.,
(PID.TID 0000.0001) > readStressOnCgrid = .TRUE.,
(PID.TID 0000.0001) > exf_monFreq       = 0.,
(PID.TID 0000.0001) > repeatPeriod      = 31104000.,
(PID.TID 0000.0001) > exf_iprec         = 64,
(PID.TID 0000.0001) > exf_yftype        = 'RL',
(PID.TID 0000.0001) > &
(PID.TID 0000.0001) >
(PID.TID 0000.0001) ># *********************
(PID.TID 0000.0001) > &EXF_NML_02
(PID.TID 0000.0001) >#
(PID.TID 0000.0001) > atempstartdate1   = 00010115,
(PID.TID 0000.0001) >#atempstartdate2   = 180000,
(PID.TID 0000.0001) > atempperiod       = 2592000.0,
(PID.TID 0000.0001) >#
(PID.TID 0000.0001) > aqhstartdate1     = 00010115,
(PID.TID 0000.0001) >#aqhstartdate2     = 180000,
(PID.TID 0000.0001) > aqhperiod         = 2592000.0,
(PID.TID 0000.0001) >#
(PID.TID 0000.0001) > precipstartdate1  = 00010115,
(PID.TID 0000.0001) >#precipstartdate2  = 180000,
(PID.TID 0000.0001) > precipperiod      = 2592000.0,
(PID.TID 0000.0001) >#
(PID.TID 0000.0001) > snowprecipstartdate1= 00010115,
(PID.TID 0000.0001) >#snowprecipstartdate2= 180000,
(PID.TID 0000.0001) > snowprecipperiod    = 2592000.,
(PID.TID 0000.0001) >#
(PID.TID 0000.0001) > runoffstartdate1  = 00010115,
(PID.TID 0000.0001) >#runoffstartdate2  = 180000,
(PID.TID 0000.0001) > runoffperiod      = 2592000.0,
(PID.TID 0000.0001) >#
(PID.TID 0000.0001) > uwindstartdate1   = 00010115,
(PID.TID 0000.0001) >#uwindstartdate2   = 180000,
(PID.TID 0000.0001) > uwindperiod       = 2592000.0,
(PID.TID 0000.0001) >#
(PID.TID 0000.0001) > vwindstartdate1   = 00010115,
(PID.TID 0000.0001) >#vwindstartdate2   = 180000,
(PID.TID 0000.0001) > vwindperiod       = 2592000.0,
(PID.TID 0000.0001) >#
(PID.TID 0000.0001) > ustressstartdate1 = 00010115,
(PID.TID 0000.0001) >#ustressstartdate2 = 180000,
(PID.TID 0000.0001) > ustressperiod     = 2592000.0,
(PID.TID 0000.0001) >#
(PID.TID 0000.0001) > vstressstartdate1 = 00010115,
(PID.TID 0000.0001) >#vstressstartdate2 = 180000,
(PID.TID 0000.0001) > vstressperiod     = 2592000.0,
(PID.TID 0000.0001) >#
(PID.TID 0000.0001) > wspeedstartdate1  = 00010115,
(PID.TID 0000.0001) >#wspeedstartdate2  = 180000,
(PID.TID 0000.0001) > wspeedperiod      = 2592000.0,
(PID.TID 0000.0001) >#
(PID.TID 0000.0001) > swdownstartdate1  = 00010115,
(PID.TID 0000.0001) >#swdownstartdate2  = 180000,
(PID.TID 0000.0001) > swdownperiod      = 2592000.0,
(PID.TID 0000.0001) >#
(PID.TID 0000.0001) > lwdownstartdate1  = 00010115,
(PID.TID 0000.0001) >#lwdownstartdate2  = 180000,
(PID.TID 0000.0001) > lwdownperiod      = 2592000.0,
(PID.TID 0000.0001) >#
(PID.TID 0000.0001) > climsssstartdate1  = 00010115,
(PID.TID 0000.0001) >#climsssstartdate2  = 180000,
(PID.TID 0000.0001) > climsssperiod      = 2592000.0,
(PID.TID 0000.0001) >#
(PID.TID 0000.0001) > climsststartdate1  = 00010115,
(PID.TID 0000.0001) >#climsststartdate2  = 180000,
(PID.TID 0000.0001) > climsstperiod      = 2592000.0,
(PID.TID 0000.0001) >#
(PID.TID 0000.0001) > atempfile         = 'core_t_Air_cs32.bin',
(PID.TID 0000.0001) > aqhfile           = 'core_q_air_cs32.bin',
(PID.TID 0000.0001) > ustressfile       = 'trenberth_taux.bin',
(PID.TID 0000.0001) > vstressfile       = 'trenberth_tauy.bin',
(PID.TID 0000.0001) >#uwindfile         = 'core_u_wind_cs32.bin',
(PID.TID 0000.0001) >#vwindfile         = 'core_v_wind_cs32.bin',
(PID.TID 0000.0001) > wspeedfile        = 'core_wndSpd_cs32.bin',
(PID.TID 0000.0001) > precipfile        = 'core_prec_1_cs32.bin',
(PID.TID 0000.0001) > snowprecipfile    = 'core_snwP_1_cs32.bin',
(PID.TID 0000.0001) > lwdownfile        = 'core_dwnLw_cs32.bin',
(PID.TID 0000.0001) > swdownfile        = 'core_dwnSw_cs32.bin',
(PID.TID 0000.0001) > runoffFile        = 'core_rnof_1_cs32.bin'
(PID.TID 0000.0001) > climsstfile       = 'lev_surfT_cs_12m.bin',
(PID.TID 0000.0001) > climsssfile       = 'lev_surfS_cs_12m.bin',
(PID.TID 0000.0001) >#
(PID.TID 0000.0001) > &
(PID.TID 0000.0001) >
(PID.TID 0000.0001) ># *********************
(PID.TID 0000.0001) > &EXF_NML_03
(PID.TID 0000.0001) > &
(PID.TID 0000.0001) >
(PID.TID 0000.0001) ># *********************
(PID.TID 0000.0001) > &EXF_NML_04
(PID.TID 0000.0001) > &
(PID.TID 0000.0001) 
(PID.TID 0000.0001) EXF_READPARMS: reading EXF_NML_01
(PID.TID 0000.0001) EXF_READPARMS: reading EXF_NML_02
(PID.TID 0000.0001) EXF_READPARMS: reading EXF_NML_03
(PID.TID 0000.0001) EXF_READPARMS: reading EXF_NML_04
(PID.TID 0000.0001) EXF_READPARMS: finished reading data.exf
(PID.TID 0000.0001)  DIAGNOSTICS_READPARMS: opening data.diagnostics
(PID.TID 0000.0001)  OPEN_COPY_DATA_FILE: opening file data.diagnostics
(PID.TID 0000.0001) // =======================================================
(PID.TID 0000.0001) // Parameter file "data.diagnostics"
(PID.TID 0000.0001) // =======================================================
(PID.TID 0000.0001) ># Diagnostic Package Choices
(PID.TID 0000.0001) >#-----------------
(PID.TID 0000.0001) ># for each output-stream:
(PID.TID 0000.0001) >#  filename(n) : prefix of the output file name (only 8.c long) for outp.stream n
(PID.TID 0000.0001) >#  frequency(n):< 0 : write snap-shot output every |frequency| seconds
(PID.TID 0000.0001) >#               > 0 : write time-average output every frequency seconds
(PID.TID 0000.0001) >#  timePhase(n)     : write at time = timePhase + multiple of |frequency|
(PID.TID 0000.0001) >#  averagingFreq(n) : frequency (in s) for periodic averaging interval
(PID.TID 0000.0001) >#  averagingPhase(n): phase     (in s) for periodic averaging interval
(PID.TID 0000.0001) >#  repeatCycle(n)   : number of averaging intervals in 1 cycle
(PID.TID 0000.0001) >#  levels(:,n) : list of levels to write to file (Notes: declared as REAL)
(PID.TID 0000.0001) >#                 when this entry is missing, select all common levels of this list
(PID.TID 0000.0001) >#  fields(:,n) : list of diagnostics fields (8.c) (see "available_diagnostics.log"
(PID.TID 0000.0001) >#                 file for the list of all available diag. in this particular config)
(PID.TID 0000.0001) >#-----------------
(PID.TID 0000.0001) > &DIAGNOSTICS_LIST
(PID.TID 0000.0001) ># diag_mnc     = .FALSE.,
(PID.TID 0000.0001) ># dumpAtLast   = .TRUE.,
(PID.TID 0000.0001) >   fields(1,1) = 'ETAN    ','ETANSQ  ','DETADT2 ','PHIBOT  ','PHIBOTSQ',
(PID.TID 0000.0001) >                 'oceTAUX ','oceTAUY ',
(PID.TID 0000.0001) >                 'oceQnet ','oceSflux','oceFWflx',
(PID.TID 0000.0001) >#                'surForcT','surForcS','TFLUX   ','SFLUX   ','oceFreez',
(PID.TID 0000.0001) >                 'TRELAX  ','SRELAX  ',
(PID.TID 0000.0001) >#                'GM_VisbK',
(PID.TID 0000.0001) >   filename(1) = 'surfDiag',
(PID.TID 0000.0001) >  frequency(1) = 1555200000.,
(PID.TID 0000.0001) >   fields(1,2) = 'UVEL    ','VVEL    ','WVEL    ','PHIHYD  ',
(PID.TID 0000.0001) >                 'VVELMASS','UVELMASS','WVELSQ  ',
(PID.TID 0000.0001) >                 'THETA   ','UTHMASS ','VTHMASS ','WTHMASS ',
(PID.TID 0000.0001) >                 'SALT    ','USLTMASS','VSLTMASS','WSLTMASS',
(PID.TID 0000.0001) ># do not specify levels => all levels are selected
(PID.TID 0000.0001) >#  filename(2) = 'dynDiag',
(PID.TID 0000.0001) >  frequency(2) = 1555200000.,
(PID.TID 0000.0001) >   fields(1,3) = 'DRHODR  ','RHOAnoma','CONVADJ ',
(PID.TID 0000.0001) >#                'GM_PsiX ','GM_PsiY ',
(PID.TID 0000.0001) >                 'GM_Kwx  ','GM_Kwy  ','GM_Kwz  ',
(PID.TID 0000.0001) >                 'GM_Kux  ','GM_Kvy  ',
(PID.TID 0000.0001) >#                'GM_Kuz  ','GM_Kvz  ',
(PID.TID 0000.0001) >#- disable this output list by commenting out the file name
(PID.TID 0000.0001) >#  filename(3) = 'oceDiag',
(PID.TID 0000.0001) >  frequency(3) = 1555200000.,
(PID.TID 0000.0001) >   fields(1,4) = 'ADVx_TH ','ADVy_TH ','ADVr_TH ',
(PID.TID 0000.0001) >                 'DIFx_TH ','DIFy_TH ','DFrE_TH ',
(PID.TID 0000.0001) >                 'DFrI_TH ',
(PID.TID 0000.0001) >#                'ADVx_SLT',
(PID.TID 0000.0001) >#  filename(4) = 'flxDiag',
(PID.TID 0000.0001) >  frequency(4) = 1728000.,
(PID.TID 0000.0001) >   fields(1,5) = 'SI_Fract','SI_Thick','SI_SnowH',
(PID.TID 0000.0001) >                 'SI_Tsrf ','SI_Tice1','SI_Tice2',
(PID.TID 0000.0001) >                 'SI_Qice1','SI_Qice2','SIsnwAge',
(PID.TID 0000.0001) >                 'SIsnwPrc','SIalbedo',
(PID.TID 0000.0001) >                 'SIflx2oc','SIfrw2oc','SIsaltFx',
(PID.TID 0000.0001) >                 'SIflxAtm','SIfrwAtm',
(PID.TID 0000.0001) >#                'SItOcMxL','SIsOcMxL',
(PID.TID 0000.0001) >                 'THETA   ','SALT    ',
(PID.TID 0000.0001) >   levels(1,5) = 1.,
(PID.TID 0000.0001) >#  filename(5) = 'thSIceDiag',
(PID.TID 0000.0001) >  frequency(5) = 1555200000.,
(PID.TID 0000.0001) > averagingFreq(5) = 2592000.,
(PID.TID 0000.0001) >   repeatCycle(5) = 12,
(PID.TID 0000.0001) > &
(PID.TID 0000.0001) >
(PID.TID 0000.0001) ># Parameter for Diagnostics of per level statistics:
(PID.TID 0000.0001) >#-----------------
(PID.TID 0000.0001) ># for each output-stream:
(PID.TID 0000.0001) >#  stat_fname(n) : prefix of the output file name (only 8.c long) for outp.stream n
(PID.TID 0000.0001) >#  stat_freq(n):< 0 : write snap-shot output every |stat_freq| seconds
(PID.TID 0000.0001) >#               > 0 : write time-average output every stat_freq seconds
(PID.TID 0000.0001) >#  stat_phase(n)    : write at time = stat_phase + multiple of |stat_freq|
(PID.TID 0000.0001) >#  stat_region(:,n) : list of "regions" (default: 1 region only=global)
(PID.TID 0000.0001) >#  stat_fields(:,n) : list of diagnostics fields (8.c) (see "available_diagnostics.log"
(PID.TID 0000.0001) >#                 file for the list of all available diag. in this particular config)
(PID.TID 0000.0001) >#-----------------
(PID.TID 0000.0001) > &DIAG_STATIS_PARMS
(PID.TID 0000.0001) >#- regional mask: 3 lat. band: 1 : y <= -24 ; 2 : -24<y<24 ; 3 : 24 <= y
(PID.TID 0000.0001) > diagSt_regMaskFile='regMask_lat24.bin',
(PID.TID 0000.0001) > nSetRegMskFile=1,
(PID.TID 0000.0001) > set_regMask(1)= 1,  1,  1,
(PID.TID 0000.0001) > val_regMask(1)= 1., 2., 3.,
(PID.TID 0000.0001) >#---
(PID.TID 0000.0001) > stat_fields(1,1)= 'ETAN    ','UVEL    ','VVEL    ','WVEL    ',
(PID.TID 0000.0001) >                   'THETA   ','SALT    ','CONVADJ ','DETADT2 ',
(PID.TID 0000.0001) >    stat_fname(1)= 'dynStDiag',
(PID.TID 0000.0001) >     stat_freq(1)= 864000.,
(PID.TID 0000.0001) > stat_fields(1,5)= 'SI_Fract','SI_Thick','SI_SnowH',
(PID.TID 0000.0001) >                   'SI_Tsrf ','SI_Tice1','SI_Tice2',
(PID.TID 0000.0001) >                   'SI_Qice1','SI_Qice2',
(PID.TID 0000.0001) >                   'SIsnwPrc','SIalbedo','SIsnwAge',
(PID.TID 0000.0001) >                   'SIflx2oc','SIfrw2oc','SIsaltFx',
(PID.TID 0000.0001) >                   'SIflxAtm','SIfrwAtm',
(PID.TID 0000.0001) >#                  'SItOcMxL','SIsOcMxL',
(PID.TID 0000.0001) > stat_region(1,5)= 1, 3, 0,
(PID.TID 0000.0001) >    stat_fname(5)= 'thSIceStDiag',
(PID.TID 0000.0001) >     stat_freq(5)= 864000.,
(PID.TID 0000.0001) > &
(PID.TID 0000.0001) >
(PID.TID 0000.0001) 
(PID.TID 0000.0001) S/R DIAGNOSTICS_READPARMS, read namelist "diagnostics_list": start
(PID.TID 0000.0001) S/R DIAGNOSTICS_READPARMS, read namelist "diagnostics_list": OK
(PID.TID 0000.0001) S/R DIAGNOSTICS_READPARMS, read namelist "DIAG_STATIS_PARMS": start
(PID.TID 0000.0001) S/R DIAGNOSTICS_READPARMS, read namelist "DIAG_STATIS_PARMS": OK
(PID.TID 0000.0001) -----------------------------------------------------
(PID.TID 0000.0001)  DIAGNOSTICS_READPARMS: active diagnostics summary:
(PID.TID 0000.0001) -----------------------------------------------------
(PID.TID 0000.0001) Creating Output Stream: surfDiag
(PID.TID 0000.0001) Output Frequency:1555200000.000000 ; Phase:          0.000000
(PID.TID 0000.0001)  Averaging Freq.:1555200000.000000 , Phase:          0.000000 , Cycle:  1
(PID.TID 0000.0001)  Levels:    will be set later
(PID.TID 0000.0001) Fields:    ETAN     ETANSQ   DETADT2  PHIBOT   PHIBOTSQ oceTAUX  oceTAUY  oceQnet  oceSflux oceFWflx
(PID.TID 0000.0001) Fields:    TRELAX   SRELAX
(PID.TID 0000.0001) -----------------------------------------------------
(PID.TID 0000.0001)  DIAGNOSTICS_READPARMS: statistics diags. summary:
(PID.TID 0000.0001) Creating Stats. Output Stream: dynStDiag
(PID.TID 0000.0001) Output Frequency:    864000.000000 ; Phase:          0.000000
(PID.TID 0000.0001)  Regions :    0
(PID.TID 0000.0001)  Fields:    ETAN     UVEL     VVEL     WVEL     THETA    SALT     CONVADJ  DETADT2
(PID.TID 0000.0001) Creating Stats. Output Stream: thSIceStDiag
(PID.TID 0000.0001) Output Frequency:    864000.000000 ; Phase:          0.000000
(PID.TID 0000.0001)  Regions :    0  1  3
(PID.TID 0000.0001)  Fields:    SI_Fract SI_Thick SI_SnowH SI_Tsrf  SI_Tice1 SI_Tice2 SI_Qice1 SI_Qice2 SIsnwPrc SIalbedo SIsnwAge SIflx2oc SIfrw2oc SIsaltFx SIflxAtm SIfrwAtm
(PID.TID 0000.0001) -----------------------------------------------------
(PID.TID 0000.0001) 
(PID.TID 0000.0001) SET_PARMS: done
(PID.TID 0000.0001) Enter INI_VERTICAL_GRID: setInterFDr=    T ; setCenterDr=    F
(PID.TID 0000.0001) tile:   1 ; Read from file grid_cs32.face001.bin
(PID.TID 0000.0001)   => xC yC dxF dyF rA xG yG dxV dyU rAz dxC dyC rAw rAs dxG dyG AngleCS AngleSN
(PID.TID 0000.0001) tile:   2 ; Read from file grid_cs32.face002.bin
(PID.TID 0000.0001)   => xC yC dxF dyF rA xG yG dxV dyU rAz dxC dyC rAw rAs dxG dyG AngleCS AngleSN
(PID.TID 0000.0001) tile:   3 ; Read from file grid_cs32.face003.bin
(PID.TID 0000.0001)   => xC yC dxF dyF rA xG yG dxV dyU rAz dxC dyC rAw rAs dxG dyG AngleCS AngleSN
(PID.TID 0000.0001) tile:   4 ; Read from file grid_cs32.face004.bin
(PID.TID 0000.0001)   => xC yC dxF dyF rA xG yG dxV dyU rAz dxC dyC rAw rAs dxG dyG AngleCS AngleSN
(PID.TID 0000.0001) tile:   5 ; Read from file grid_cs32.face005.bin
(PID.TID 0000.0001)   => xC yC dxF dyF rA xG yG dxV dyU rAz dxC dyC rAw rAs dxG dyG AngleCS AngleSN
(PID.TID 0000.0001) tile:   6 ; Read from file grid_cs32.face006.bin
(PID.TID 0000.0001)   => xC yC dxF dyF rA xG yG dxV dyU rAz dxC dyC rAw rAs dxG dyG AngleCS AngleSN
(PID.TID 0000.0001) %MON XC_max                       =   1.7854351589505E+02
(PID.TID 0000.0001) %MON XC_min                       =  -1.7854351589505E+02
(PID.TID 0000.0001) %MON XC_mean                      =  -4.6999441375798E-15
(PID.TID 0000.0001) %MON XC_sd                        =   1.0355545336287E+02
(PID.TID 0000.0001) %MON XG_max                       =   1.8000000000000E+02
(PID.TID 0000.0001) %MON XG_min                       =  -1.7708797161002E+02
(PID.TID 0000.0001) %MON XG_mean                      =   1.8796250616675E+00
(PID.TID 0000.0001) %MON XG_sd                        =   1.0410625309932E+02
(PID.TID 0000.0001) %MON DXC_max                      =   3.2375185836900E+05
(PID.TID 0000.0001) %MON DXC_min                      =   1.1142031410131E+05
(PID.TID 0000.0001) %MON DXC_mean                     =   2.8605689051214E+05
(PID.TID 0000.0001) %MON DXC_sd                       =   3.4042087138252E+04
(PID.TID 0000.0001) %MON DXF_max                      =   3.2369947500827E+05
(PID.TID 0000.0001) %MON DXF_min                      =   1.2020820513318E+05
(PID.TID 0000.0001) %MON DXF_mean                     =   2.8605437324820E+05
(PID.TID 0000.0001) %MON DXF_sd                       =   3.4050524252539E+04
(PID.TID 0000.0001) %MON DXG_max                      =   3.2375195872773E+05
(PID.TID 0000.0001) %MON DXG_min                      =   1.0098378008791E+05
(PID.TID 0000.0001) %MON DXG_mean                     =   2.8603818508931E+05
(PID.TID 0000.0001) %MON DXG_sd                       =   3.4140406908005E+04
(PID.TID 0000.0001) %MON DXV_max                      =   3.2380418162750E+05
(PID.TID 0000.0001) %MON DXV_min                      =   8.0152299824136E+04
(PID.TID 0000.0001) %MON DXV_mean                     =   2.8603970633619E+05
(PID.TID 0000.0001) %MON DXV_sd                       =   3.4145142117723E+04
(PID.TID 0000.0001) %MON YC_max                       =   8.7940663871962E+01
(PID.TID 0000.0001) %MON YC_min                       =  -8.7940663871962E+01
(PID.TID 0000.0001) %MON YC_mean                      =   0.0000000000000E+00
(PID.TID 0000.0001) %MON YC_sd                        =   3.8676242969072E+01
(PID.TID 0000.0001) %MON YG_max                       =   9.0000000000000E+01
(PID.TID 0000.0001) %MON YG_min                       =  -9.0000000000000E+01
(PID.TID 0000.0001) %MON YG_mean                      =  -1.2094344438470E-15
(PID.TID 0000.0001) %MON YG_sd                        =   3.9086186579984E+01
(PID.TID 0000.0001) %MON DYC_max                      =   3.2375185836900E+05
(PID.TID 0000.0001) %MON DYC_min                      =   1.1142031410131E+05
(PID.TID 0000.0001) %MON DYC_mean                     =   2.8605689051214E+05
(PID.TID 0000.0001) %MON DYC_sd                       =   3.4042087138252E+04
(PID.TID 0000.0001) %MON DYF_max                      =   3.2369947500827E+05
(PID.TID 0000.0001) %MON DYF_min                      =   1.2020820513318E+05
(PID.TID 0000.0001) %MON DYF_mean                     =   2.8605437324820E+05
(PID.TID 0000.0001) %MON DYF_sd                       =   3.4050524252539E+04
(PID.TID 0000.0001) %MON DYG_max                      =   3.2375195872773E+05
(PID.TID 0000.0001) %MON DYG_min                      =   1.0098378008791E+05
(PID.TID 0000.0001) %MON DYG_mean                     =   2.8603818508931E+05
(PID.TID 0000.0001) %MON DYG_sd                       =   3.4140406908005E+04
(PID.TID 0000.0001) %MON DYU_max                      =   3.2380418162750E+05
(PID.TID 0000.0001) %MON DYU_min                      =   8.0152299824136E+04
(PID.TID 0000.0001) %MON DYU_mean                     =   2.8603970633619E+05
(PID.TID 0000.0001) %MON DYU_sd                       =   3.4145142117723E+04
(PID.TID 0000.0001) %MON RA_max                       =   1.0479260248419E+11
(PID.TID 0000.0001) %MON RA_min                       =   1.4019007022556E+10
(PID.TID 0000.0001) %MON RA_mean                      =   8.2992246709265E+10
(PID.TID 0000.0001) %MON RA_sd                        =   1.7509089299457E+10
(PID.TID 0000.0001) %MON RAW_max                      =   1.0480965274559E+11
(PID.TID 0000.0001) %MON RAW_min                      =   1.2166903467143E+10
(PID.TID 0000.0001) %MON RAW_mean                     =   8.2992246709235E+10
(PID.TID 0000.0001) %MON RAW_sd                       =   1.7481917919656E+10
(PID.TID 0000.0001) %MON RAS_max                      =   1.0480965274559E+11
(PID.TID 0000.0001) %MON RAS_min                      =   1.2166903467143E+10
(PID.TID 0000.0001) %MON RAS_mean                     =   8.2992246709235E+10
(PID.TID 0000.0001) %MON RAS_sd                       =   1.7481917919656E+10
(PID.TID 0000.0001) %MON RAZ_max                      =   1.0484349334619E+11
(PID.TID 0000.0001) %MON RAZ_min                      =   8.8317900612505E+09
(PID.TID 0000.0001) %MON RAZ_mean                     =   8.2992246709235E+10
(PID.TID 0000.0001) %MON RAZ_sd                       =   1.7482297311044E+10
(PID.TID 0000.0001) %MON AngleCS_max                  =   9.9999994756719E-01
(PID.TID 0000.0001) %MON AngleCS_min                  =  -9.9968286884824E-01
(PID.TID 0000.0001) %MON AngleCS_mean                 =   3.3078850405987E-01
(PID.TID 0000.0001) %MON AngleCS_sd                   =   6.2496317138039E-01
(PID.TID 0000.0001) %MON AngleSN_max                  =   9.9968286884824E-01
(PID.TID 0000.0001) %MON AngleSN_min                  =  -9.9999994756719E-01
(PID.TID 0000.0001) %MON AngleSN_mean                 =  -3.3078850405987E-01
(PID.TID 0000.0001) %MON AngleSN_sd                   =   6.2496317138039E-01
(PID.TID 0000.0001)  MDS_READ_FIELD: opening global file: bathy_Hmin50.bin
(PID.TID 0000.0001) // =======================================================
(PID.TID 0000.0001) // Field Model R_low (ini_masks_etc) at iteration          1
(PID.TID 0000.0001) // CMIN =         -5.200000000000000E+03
(PID.TID 0000.0001) // CMAX =         -5.000000000000000E+01
(PID.TID 0000.0001) // CINT =          1.907407407407407E+02
(PID.TID 0000.0001) // SYMBOLS (CMIN->CMAX): -abcdefghijklmnopqrstuvwxyz+
(PID.TID 0000.0001) //                  0.0: .
(PID.TID 0000.0001) // RANGE I (Lo:Hi:Step):(  -3: 196:   1)
(PID.TID 0000.0001) // RANGE J (Lo:Hi:Step):(  36:  -3:  -1)
(PID.TID 0000.0001) // RANGE K (Lo:Hi:Step):(   1:   1:   1)
(PID.TID 0000.0001) // =======================================================
(PID.TID 0000.0001) K =   1
(PID.TID 0000.0001) //                I=6       I=16      I=26      I=36      I=38      I=48      I=58      I=68      I=70      I=80      I=90      I=100     I=102     I=112     I=122     I=132     I=134     I=144     I=154     I=164     I=166     I=176     I=186     I=196
(PID.TID 0000.0001) // |--J--|321012345|789012345|789012345|789012345|901234567|901234567|901234567|901234567|123456789|123456789|123456789|123456789|345678901|345678901|345678901|345678901|567890123|567890123|567890123|567890123|789012345|789012345|789012345|789012345|
(PID.TID 0000.0001) //     36 cbbc-ddcbcdehkhhmn..++..................................................okn.skko--a-fc----bba-cp.............tfeecccbbdeecccbbdeddedcdcccdddcddffggghiggfffdeeffijlihjlica---a--cgffel.+edfgeedflcbahgfllcbahgfllfhdffhkfffca-aady...llnabdoa--a
(PID.TID 0000.0001) //     35 dcac--cbbeefjkfefw+..........zpu........................................kqnzrqqk--b-da----bbbbfu..............fdddccaadcddccaadcdddcbbbbcdddcccdffffghgffffddefflligfiljfba---aafddehy...pwvlhfffcbagfccfcbagfcceeffffjlkjgaa---bfvheeln-aesaaab
(PID.TID 0000.0001) //     34 d--ba-abcehjnldcclz+........spps.......................................vkqn+xnnncabbcbba--aabfu+..............hcbaaaaaccbaaaaaccdccbaaabbddddccdffffghfeeeeedeffjiffefilhfcaaaacgceei.......zomggfcaecbbgfcaecbbccddefilihecbaacbaajfega-aesfeed
(PID.TID 0000.0001) //     33 --abbbccceiomkfdbbc+.......+s..........................................xsrxzz+z.fdcddb-----adu+...............hcbaa--accbaa--accddba--bbbddddccdfffhhgfeeddcceddhfeddfgikhfffdfgccffw........zohhgebbaaahgebbaaaaaccdfhlhfefdcccaabjefbaaafoosso
(PID.TID 0000.0001) //     32 --bddefhhkqqlgfaakqz..v.+..+.........................................++..u+....zigfdba----adu+................kdcaaa-acccaaa-accdcb---bbbcdddddefffggfeeedcccccbccbbdcdfgghhiihcbeiw.........+ynjgebaaaajgebaaaa-aacccfikkhecccbbbaaabaadfklnqpp
(PID.TID 0000.0001) //     31 abbcffijnpnqneaaat..umrr+s.z.........................................+++++.ztsvdlifeb--dfdfu+................+lkdca--abcdca--abcccb---bbbbddddeffflhfeeeecbbbbaaba-abbacbcdceffbbfw+..........++ujfbaaa-ujfbaaa----aacffiljgfffcca--adfikkiihhhf
(PID.TID 0000.0001) //     30 --adgillkkkifcadcx.ymmqzqikvnnps.....................................+++++wmegt-jlifcacdlqx+++...............mligea---abgea---abbbb---abaaddddeedkmeddefdbbbaaaabc---b--aaaaabaabm..............+viba---+viba-------acdefinmlgiieb-chnnnmlmlgffc
(PID.TID 0000.0001) //     29 --cfiljigfjd--efdozy...+ximpnnuz......................................+++yqddhp-iljhcbbchz+......++.........+mmhffc----affc----aaba------acdddcbcineddgdbaaa----cdd--a------aa-bfz...............+qe---a.+qe---aa---aedeegknmlgiigcdfhpokkimlfdb
(PID.TID 0000.0001) //     28 -abgkhfcccea-bdei........t............................................++zwgfcfk-gknhccbbhwwy.....+++........+njfeed-----eed-----aa-------abddcabcnfddegcaaa-----hlf------------dk+................+ja---..+ja------bffdddehfd--bedaacfhpnligiihd
(PID.TID 0000.0001) //     27 -acghfbaaaa-achmy......................+.......+++....................++vnbbbclefkpkeeecflmqxy....++........+lhfeecc----eecc------------aaadcbabcfhddccba-------zqd-----------irw.................++e---..++e-----mhmijddda--------ahhfiokhedegg
(PID.TID 0000.0001) //     26 -adhfca-----bfiv.......................+.......++sy...................+tq-fdbblcjknqiheddefhiksz++++........zkhfdccb----dccb------------aabdcaaaacfddbca-------a+xfa-abb-----vvv...................+wa--...+wa---mlmkijhc----------cjjffiheb-aad
(PID.TID 0000.0001) //     25 -achfa------ch+..................w.......w.......njo+................+x-----bcgidiqqojfefiiiijmy.++.........zkhfdbaa----dbaa-------daa---acccaaaacccca--------ac.+udaabbb----tei...................++qde...++qdeqnghiljcaaaaidaa----beedeeca--bb
(PID.TID 0000.0001) //     24 aaeifa--acbcei...................w.......w.......likn+.....++.....++znpa----bbdi-fnlmnjhinlksssw............qhfeca------ca--------addc--aeffaaaaaaccb-a----a--bd.++udbbaba---ven....................++xy....++xywnfgllcbbabegkecba----ddddcaacdc
(PID.TID 0000.0001) //     23 abfida-aabchjk...................zz......zz.....nhhijz....tqq.....+ujgzgd---abci-cegklkkknols..xuu..........zgfdba------ba--------bcd---affaaadffabbb-----aa-bcc.+.+ufb-----l.gx...........s.........++z.....++zzkfilfccccoz..ulkcd---bccnfddddd
(PID.TID 0000.0001) //     22 -afhfaa---bfgi....................zz..rn..zz..rnjffggm...nlmn+....+sffzya--aabcieaaffdfhimrmp...yuu.++.......zudba------ba--------adc---dda-adffe-aa--------aaac....+ufc-baaqvhh..........dcfeeh......++......++zggqvifefhz......zobbaccfwuffeee
(PID.TID 0000.0001) //     21 babcgca----abe.....................ysstl...ysstlgeeeeoz..ijklt+....lfjzzf---adfcfdaadcehllotq....yy+++zzs.....+zcba-----cba-------cdd--aaa----df------------aaac.....+upjdcy.vohq.......+idcdfeeefwz....efwz....+hhn.vklox.........gdccfjwrigffh
(PID.TID 0000.0001) //     20 fbbbcgfcaa-aae+.......................lc......lcgfdddhq.+hiilnz++.+oquxyz--adgkfdcaabcfmtooyxz......+yuiiy....++gb------gb--------ddcca-a-----acbaa------bbaaaab........ywxy.lulo.lv...kcdgddffefffilyx+fffilyx+fffk.+xyyy.........mgeimvskjklll
(PID.TID 0000.0001) //     19 zmfeccdghfeegcbt......................aa......aafifccgnrzgghjry.+++sr+lq.--edfkkoxtkblwnnsp.vv......skhggt...+++t-------t---------bdaf---------edd-------adlaaaa+..........vnhzy.tllqiedccdhggfggffiiggfgffiiggfcbdgy..yz..........xigqophijkkii
(PID.TID 0000.0001) //     18 ..wifedfkhfegbbcivlqfoz..............jaa.....jaacfihggokeeffgt..++++..hhlfdeddkez..qcz+.zwxtsttz..ysrkhot++++++zig------ig--------b--f---------egqqqaa----frb---+........+kkrhw.vqmlnieddcdehgggffgigedbffgigedbaaceiy.............zilrddefikkhh
(PID.TID 0000.0001) //     17 ..+wfeefikhgcbbccaaacgn.............icaa....icaaccfihfoedddeedy..++...nnqwgfeekeyy.z++..+zsjjllllljllpjos+++.+zhhi-----ehi-----e-----ea--------foqqoqqo--hlwgea-.........+nk+..xiioonhfefddegihhghigfdbaghigfdbaaabdgx..............nheddefiklhg
(PID.TID 0000.0001) //     16 ....wiheddeccdfhfbabdfl............jdbad...jdbaddddgifkccccdccd+.++..++ynvz.tkkq.mu....++zyslllllkhggkmpy++...ihhi-----ehi-----ea---feb-----a-acnoohfghknvmwnuca..........qhu..hhhkojgffgeefghihhiieedbahiieedbaaabcdy..............ygddeghiljgf
(PID.TID 0000.0001) //     15 ......ylea--acfihebcbbes..........sfcbbn..sfcbbngfffigcaaabdbcac+.+++++zgmpx...y.mm....++..zslwz.yhhhhnz+++...rhgc----abgc----ab----ige----acaaalllkddfiy..yswxb..........thk.xgghiligfghfefhhhhiiheedcdiiheedcdbbabdmz.............zfdeghikkifd
(PID.TID 0000.0001) //     14 ........c---acgkhdcc--di..........ofddch..ofddchohffikaaaaabaaa-aw+.+ysnggox++...qrv..........yzzzzrjil+++....qhgd-----agd-----a-----i---cccdeabkklldinqssy..xxv...........+y.uhghikihgfghefgihhhgeeeeedhgeeeeeddbaadhw.............nedeghjjhfed
(PID.TID 0000.0001) //     13 .......+b----cfkhec---afz.........nhfdff..nhfdffholghkaaaaaba-a---flkkuswyy++++y+zr...........zzzzz++ry++......yd-------d--------------aeecdeidfkkqnqlmqquukqqmf..............iihiijjhfefgefhjihiffgggffiffgggffecaabelx...........zjecehijhfecc
(PID.TID 0000.0001) //     12 .......ec----chjhec---ag..........skiqdd..skiqddeiiiifaaabae--a---dd--iu+++.+++sxq++..........+z+++++.+++....++.s-------s------------a-ceccdejhlllkqlkklssiccdee.............wjkkkjjjigeefffgjiiighiiihhighiiihhhdaabdffghtxx......mfccehjiffdb-
(PID.TID 0000.0001) //     11 ......pdca--achlheba--ai..........nkn.fd..nkn.fdemijidaaaabi-------a--q+....++.ziis...........+++++..........+yyza----b-za----b-----a--ccccddkhieekkossssfbbbbcd............njjijhhihijhgggggjjjjijkkkkjjijkkkkjjhcaacddeegpy.....xfdccdhjgfdda-
(PID.TID 0000.0001) //     10 ......wfdb--achlhea---an.........uos..dc.uos..dcemikkfdcaabi-------equ+.........mk...........................zyvuq----ccuq----cc----a---dcfhkopqjeissrnpfbbcccde..........zslihhigghgijjihhhhkllkkkkkkjkkkkkkkjkkkedccdeeeeipz..zwhccbcdhgfddcam
(PID.TID 0000.0001) //      9 ......vgec---bfikca--cjl+.......+nnv.+cc+nnv.+ccffhkkiddaadha-----as++..........pvz++........................zxuuk------uk------a---a----djmqrrnlllsoiddcccccdjf.........+zjijhfgfggffhjkkkiillljihhghgijihhghgihighdeeffgghimnnjgecbbcdgfeccbas
(PID.TID 0000.0001) //      8 .....zleca---afjfca--hdfz.......vkky.jcevkky.jceddefijffdddhb--a-afv............nn..ss.........................+yku-----yku--------------ejnpqqnninnritqdccchkmf+.......wihgghgeffffeefhijkjkljiigeeffefigeeffefffhjhhikkklljklmhffeeeggfdcbaay.
(PID.TID 0000.0001) //      7 ...+zohec--abcfkhecbchbdx.......qiht.faaqiht.faaaabdgijgfededcdcb-f+............nn...pz.........................+zu-----+zu--------------edefqgqddsz+......+yuddmm+....tiggfggfeeeefeeefiiiijkiihhedddddhheddddddddjjllliijhfkmmkkjjhijgdcba--q.
(PID.TID 0000.0001) //      6 ..+yomfddcaabefkifdchaadt......uqdeisc--qdeisc----dfefgifffkklldc--v............up...pp.........................v.x-----v.x---------a----fbbpqgzenx+........zdbcmllkhhfffffffgfeeeeeeeefhhhhijihhffddcbbhffddcbbbbdhhiihedddb-cfhhhjjjieca----+.
(PID.TID 0000.0001) //      5 ..+nhgffkghccfhkhffgdaackz....uoibcimlaaibcimlaaacfbddfjjhijeehf-a-c............zs...su.........................qk.yi---qk.yi-------gha-fjddqs+xkrz.........q-bchikdccdeeeeeeedddedddddgghhhhjhhgffcbbaagffcbbaaaaddfegecca----dfeefhfgdb-----+.
(PID.TID 0000.0001) //      4 .+ujhgfllfhdffhkfffca-aady...llnabdopfcbabdopfcbdgdbcdehlihgfddc--ms............................................okn.zd--okn.zd---eciiiicfkeeqy.ysz..........n-aafgdcbbdeddedcdcccdddcddffggghiggfffdbaa-fffdbaa---acdcccba--abvfedeffdcca----b+.
(PID.TID 0000.0001) //      3 +vjggfcceeffffjlkjgaa---bfvheeln-aesphfd-aesphfdhgabddeflihhgfecbaaayq+++++.....................................kqnz.vtpkqnz.vtpkllgdccfkkkkk..++..........+g---fecaaadcdddcbbbbcdddcccdffffghgffffdcaa-fffdcaa----abcaaaa-acxxmecdjmdbba----r+.
(PID.TID 0000.0001) //      2 qifeecbbccddefilihecbaacbaajfega-aesqhff-aesqhffiea-cdeflkkljifeddcba---bry+...................................vkqn+.sghkqn+.sghfcbcbbbdgfdek.++++.........+l---caaaaaccdccbaaabbddddccdffffghfeeeeecba-eeeecba------baaaa-euwxqdbcdkud-----sy+.
(PID.TID 0000.0001) //      1 ebbbbaaaaaccdfhlhfefdcccaabjefbaaafonhglaafonhglid--adfgkkkklkhffddca-----s++++................................xsrxz.tedsrxz.tedcbbbbaaadddet.++++.........+l------a-accddba--bbbddddccdfffhhgfeeddccba-eddccba-------aaaabgns.qcbcchyzqngll++..
(PID.TID 0000.0001) //      0 -aaaaaaa-aacccfikkhecccbbbaaabaadfkllilmdfkllilmgebaadfijjiiikjhffdcba-----lllgn.............................++..u+..zmd.u+..zmdfbd---a-aeef.xx+..........+++s-------accdcb---bbbcdddddefffggfeeedcccbbaedcccbba----aa--alrwwy.kcbccc+...++++...
(PID.TID 0000.0001) //     -1 --aaaaa----aacffiljgfffcca--adfikkiikimikkiikimiiheccfurkiffhijjigfecb-----l----.............................+++++.z+.wq++.z+.wqgbf-------dgzpoy+........+ys+yrb--aa-abcccb---bbbbddddeffflhfeeeecbbcbbaecbbcbbaa----a--bdflm.yuibbcc.......+...
(PID.TID 0000.0001) //     -2 --aaa-------acdefinmlgiieb-chnnnmlmlfklkmlmlfklklkhednwwsheeghhijjgfdca----g---a.............................+++++wmu++y++wmu++ywn--------fwvmgy+........+r-.+++-abc--abbbb---abaaddddeedkmeddefdbbbdcbadbbbdcbaa-------ba-hv.susfbcc.......+...
(PID.TID 0000.0001) //     -3 a--a---aa---aedeegknmlgiigcdfhpokkimdkmkkkimdkmknoiedcfjvpddegghhhhgfdcbaa-n---a..............................+++yqd.++++yqd.+++zvq--dafz.lqnggw+........+b-....abcc---aaba------acdddcbcineddgdbaaaeedbbaaaeedbaa----------nysqssfcd...........
(PID.TID 0000.0001) // =======================================================
(PID.TID 0000.0001) // END OF FIELD                                          =
(PID.TID 0000.0001) // =======================================================
(PID.TID 0000.0001) 
(PID.TID 0000.0001) // =======================================================
(PID.TID 0000.0001) // Field Model Ro_surf (ini_masks_etc) at iteration          1
(PID.TID 0000.0001) // CMIN =         -7.105427357601002E-15
(PID.TID 0000.0001) // CMAX =         -7.105427357601002E-15
(PID.TID 0000.0001) // CINT =          0.000000000000000E+00
(PID.TID 0000.0001) // SYMBOLS (CMIN->CMAX): -abcdefghijklmnopqrstuvwxyz+
(PID.TID 0000.0001) //                  0.0: .
(PID.TID 0000.0001) // RANGE I (Lo:Hi:Step):(  -3: 196:   1)
(PID.TID 0000.0001) // RANGE J (Lo:Hi:Step):(  36:  -3:  -1)
(PID.TID 0000.0001) // RANGE K (Lo:Hi:Step):(   1:   1:   1)
(PID.TID 0000.0001) // =======================================================
(PID.TID 0000.0001) // =======================================================
(PID.TID 0000.0001) // END OF FIELD                                          =
(PID.TID 0000.0001) // =======================================================
(PID.TID 0000.0001) 
(PID.TID 0000.0001) // =======================================================
(PID.TID 0000.0001) // Field hFacC at iteration          1
(PID.TID 0000.0001) // CMIN =          1.000000000000000E+00
(PID.TID 0000.0001) // CMAX =          1.000000000000000E+00
(PID.TID 0000.0001) // CINT =          0.000000000000000E+00
(PID.TID 0000.0001) // SYMBOLS (CMIN->CMAX): -abcdefghijklmnopqrstuvwxyz+
(PID.TID 0000.0001) //                  0.0: .
(PID.TID 0000.0001) // RANGE I (Lo:Hi:Step):(  -3: 196:   1)
(PID.TID 0000.0001) // RANGE J (Lo:Hi:Step):(  36:  -3:  -1)
(PID.TID 0000.0001) // RANGE K (Lo:Hi:Step):(   1:   1:   1)
(PID.TID 0000.0001) // =======================================================
(PID.TID 0000.0001) // =======================================================
(PID.TID 0000.0001) // END OF FIELD                                          =
(PID.TID 0000.0001) // =======================================================
(PID.TID 0000.0001) 
(PID.TID 0000.0001) // =======================================================
(PID.TID 0000.0001) // Field hFacW at iteration          1
(PID.TID 0000.0001) // CMIN =          1.000000000000000E+00
(PID.TID 0000.0001) // CMAX =          1.000000000000000E+00
(PID.TID 0000.0001) // CINT =          0.000000000000000E+00
(PID.TID 0000.0001) // SYMBOLS (CMIN->CMAX): -abcdefghijklmnopqrstuvwxyz+
(PID.TID 0000.0001) //                  0.0: .
(PID.TID 0000.0001) // RANGE I (Lo:Hi:Step):(  -3: 196:   1)
(PID.TID 0000.0001) // RANGE J (Lo:Hi:Step):(  36:  -3:  -1)
(PID.TID 0000.0001) // RANGE K (Lo:Hi:Step):(   1:   1:   1)
(PID.TID 0000.0001) // =======================================================
(PID.TID 0000.0001) // =======================================================
(PID.TID 0000.0001) // END OF FIELD                                          =
(PID.TID 0000.0001) // =======================================================
(PID.TID 0000.0001) 
(PID.TID 0000.0001) // =======================================================
(PID.TID 0000.0001) // Field hFacS at iteration          1
(PID.TID 0000.0001) // CMIN =          1.000000000000000E+00
(PID.TID 0000.0001) // CMAX =          1.000000000000000E+00
(PID.TID 0000.0001) // CINT =          0.000000000000000E+00
(PID.TID 0000.0001) // SYMBOLS (CMIN->CMAX): -abcdefghijklmnopqrstuvwxyz+
(PID.TID 0000.0001) //                  0.0: .
(PID.TID 0000.0001) // RANGE I (Lo:Hi:Step):(  -3: 196:   1)
(PID.TID 0000.0001) // RANGE J (Lo:Hi:Step):(  36:  -3:  -1)
(PID.TID 0000.0001) // RANGE K (Lo:Hi:Step):(   1:   1:   1)
(PID.TID 0000.0001) // =======================================================
(PID.TID 0000.0001) // =======================================================
(PID.TID 0000.0001) // END OF FIELD                                          =
(PID.TID 0000.0001) // =======================================================
(PID.TID 0000.0001) 
(PID.TID 0000.0001) 
(PID.TID 0000.0001) // ===================================
(PID.TID 0000.0001) // GAD parameters :
(PID.TID 0000.0001) // ===================================
(PID.TID 0000.0001) tempAdvScheme =   /* Temp. Horiz.Advection scheme selector */
(PID.TID 0000.0001)                       2
(PID.TID 0000.0001)     ;
(PID.TID 0000.0001) tempVertAdvScheme =   /* Temp. Vert. Advection scheme selector */
(PID.TID 0000.0001)                       2
(PID.TID 0000.0001)     ;
(PID.TID 0000.0001) tempMultiDimAdvec =   /* use Muti-Dim Advec method for Temp */
[...]
 Compute Stats, Diag. # 204  SI_Thick  vol(  3 ): 5.013E+13  Parms: SM PC203M1      
    use Counter Mate  # 203  SI_Fract  vol(  3 ): 7.935E+14 integral 5.013E+13
 Compute Stats, Diag. # 205  SI_SnowH  vol(  0 ): 5.013E+13  Parms: SM PC203M1      
    use Counter Mate  # 203  SI_Fract  vol(  0 ): 3.639E+15 integral 5.013E+13
 Compute Stats, Diag. # 205  SI_SnowH  vol(  1 ): 0.000E+00  Parms: SM PC203M1      
    use Counter Mate  # 203  SI_Fract  vol(  1 ): 1.289E+15 integral 0.000E+00
 Compute Stats, Diag. # 205  SI_SnowH  vol(  3 ): 5.013E+13  Parms: SM PC203M1      
    use Counter Mate  # 203  SI_Fract  vol(  3 ): 7.935E+14 integral 5.013E+13
 Compute Stats, Diag. # 206  SI_Tsrf   vol(  0 ): 5.013E+13  Parms: SM  C203M1      
    use Counter Mate  # 203  SI_Fract  vol(  0 ): 3.639E+15 integral 5.013E+13
 Compute Stats, Diag. # 206  SI_Tsrf   vol(  1 ): 0.000E+00  Parms: SM  C203M1      
    use Counter Mate  # 203  SI_Fract  vol(  1 ): 1.289E+15 integral 0.000E+00
 Compute Stats, Diag. # 206  SI_Tsrf   vol(  3 ): 5.013E+13  Parms: SM  C203M1      
    use Counter Mate  # 203  SI_Fract  vol(  3 ): 7.935E+14 integral 5.013E+13
 Compute Stats, Diag. # 207  SI_Tice1  vol(  0 ): 5.013E+13  Parms: SM  C203M1      
    use Counter Mate  # 203  SI_Fract  vol(  0 ): 3.639E+15 integral 5.013E+13
 Compute Stats, Diag. # 207  SI_Tice1  vol(  1 ): 0.000E+00  Parms: SM  C203M1      
    use Counter Mate  # 203  SI_Fract  vol(  1 ): 1.289E+15 integral 0.000E+00
 Compute Stats, Diag. # 207  SI_Tice1  vol(  3 ): 5.013E+13  Parms: SM  C203M1      
    use Counter Mate  # 203  SI_Fract  vol(  3 ): 7.935E+14 integral 5.013E+13
 Compute Stats, Diag. # 208  SI_Tice2  vol(  0 ): 5.013E+13  Parms: SM  C203M1      
    use Counter Mate  # 203  SI_Fract  vol(  0 ): 3.639E+15 integral 5.013E+13
 Compute Stats, Diag. # 208  SI_Tice2  vol(  1 ): 0.000E+00  Parms: SM  C203M1      
    use Counter Mate  # 203  SI_Fract  vol(  1 ): 1.289E+15 integral 0.000E+00
 Compute Stats, Diag. # 208  SI_Tice2  vol(  3 ): 5.013E+13  Parms: SM  C203M1      
    use Counter Mate  # 203  SI_Fract  vol(  3 ): 7.935E+14 integral 5.013E+13
 Compute Stats, Diag. # 209  SI_Qice1  vol(  0 ): 2.467E+13  Parms: SM  C204M1      
    use Counter Mate  # 204  SI_Thick  vol(  0 ): 5.013E+13 integral 2.467E+13
 Compute Stats, Diag. # 209  SI_Qice1  vol(  1 ): 0.000E+00  Parms: SM  C204M1      
    use Counter Mate  # 204  SI_Thick  vol(  1 ): 0.000E+00 integral 0.000E+00
 Compute Stats, Diag. # 209  SI_Qice1  vol(  3 ): 2.467E+13  Parms: SM  C204M1      
    use Counter Mate  # 204  SI_Thick  vol(  3 ): 5.013E+13 integral 2.467E+13
 Compute Stats, Diag. # 210  SI_Qice2  vol(  0 ): 2.467E+13  Parms: SM  C204M1      
    use Counter Mate  # 204  SI_Thick  vol(  0 ): 5.013E+13 integral 2.467E+13
 Compute Stats, Diag. # 210  SI_Qice2  vol(  1 ): 0.000E+00  Parms: SM  C204M1      
    use Counter Mate  # 204  SI_Thick  vol(  1 ): 0.000E+00 integral 0.000E+00
 Compute Stats, Diag. # 210  SI_Qice2  vol(  3 ): 2.467E+13  Parms: SM  C204M1      
    use Counter Mate  # 204  SI_Thick  vol(  3 ): 5.013E+13 integral 2.467E+13
 Compute Stats, Diag. # 214  SIsnwPrc  vol(  0 ): 5.035E+13  Parms: SM  C212M1      
    use Counter Mate  # 212  SI_FrcFx  vol(  0 ): 3.639E+15 integral 5.035E+13
 Compute Stats, Diag. # 214  SIsnwPrc  vol(  1 ): 0.000E+00  Parms: SM  C212M1      
    use Counter Mate  # 212  SI_FrcFx  vol(  1 ): 1.289E+15 integral 0.000E+00
 Compute Stats, Diag. # 214  SIsnwPrc  vol(  3 ): 5.035E+13  Parms: SM  C212M1      
    use Counter Mate  # 212  SI_FrcFx  vol(  3 ): 7.935E+14 integral 5.035E+13
 Compute Stats, Diag. # 213  SIalbedo  vol(  0 ): 5.035E+13  Parms: SM PC212M1      
    use Counter Mate  # 212  SI_FrcFx  vol(  0 ): 3.639E+15 integral 5.035E+13
 Compute Stats, Diag. # 213  SIalbedo  vol(  1 ): 0.000E+00  Parms: SM PC212M1      
    use Counter Mate  # 212  SI_FrcFx  vol(  1 ): 1.289E+15 integral 0.000E+00
 Compute Stats, Diag. # 213  SIalbedo  vol(  3 ): 5.035E+13  Parms: SM PC212M1      
    use Counter Mate  # 212  SI_FrcFx  vol(  3 ): 7.935E+14 integral 5.035E+13
 Compute Stats, Diag. # 211  SIsnwAge  vol(  0 ): 3.639E+15  Parms: SM P    M1      
 Compute Stats, Diag. # 211  SIsnwAge  vol(  1 ): 1.289E+15  Parms: SM P    M1      
 Compute Stats, Diag. # 211  SIsnwAge  vol(  3 ): 7.935E+14  Parms: SM P    M1      
 Compute Stats, Diag. # 217  SIflx2oc  vol(  0 ): 3.639E+15  Parms: SM      M1      
 Compute Stats, Diag. # 217  SIflx2oc  vol(  1 ): 1.289E+15  Parms: SM      M1      
 Compute Stats, Diag. # 217  SIflx2oc  vol(  3 ): 7.935E+14  Parms: SM      M1      
 Compute Stats, Diag. # 218  SIfrw2oc  vol(  0 ): 3.639E+15  Parms: SM      M1      
 Compute Stats, Diag. # 218  SIfrw2oc  vol(  1 ): 1.289E+15  Parms: SM      M1      
 Compute Stats, Diag. # 218  SIfrw2oc  vol(  3 ): 7.935E+14  Parms: SM      M1      
 Compute Stats, Diag. # 219  SIsaltFx  vol(  0 ): 3.639E+15  Parms: SM      M1      
 Compute Stats, Diag. # 219  SIsaltFx  vol(  1 ): 1.289E+15  Parms: SM      M1      
 Compute Stats, Diag. # 219  SIsaltFx  vol(  3 ): 7.935E+14  Parms: SM      M1      
 Compute Stats, Diag. # 215  SIflxAtm  vol(  0 ): 3.639E+15  Parms: SM      M1      
 Compute Stats, Diag. # 215  SIflxAtm  vol(  1 ): 1.289E+15  Parms: SM      M1      
 Compute Stats, Diag. # 215  SIflxAtm  vol(  3 ): 7.935E+14  Parms: SM      M1      
 Compute Stats, Diag. # 216  SIfrwAtm  vol(  0 ): 3.639E+15  Parms: SM      M1      
 Compute Stats, Diag. # 216  SIfrwAtm  vol(  1 ): 1.289E+15  Parms: SM      M1      
 Compute Stats, Diag. # 216  SIfrwAtm  vol(  3 ): 7.935E+14  Parms: SM      M1      
(PID.TID 0000.0001) %CHECKPOINT        10 ckptA
(PID.TID 0000.0001) DIAGSTATS_CLOSE_IO: close file: dynStDiag.0000000000.txt , unit=     9
(PID.TID 0000.0001) DIAGSTATS_CLOSE_IO: close file: thSIceStDiag.0000000000.txt , unit=    10
(PID.TID 0000.0001)   Seconds in section "ALL                    [THE_MODEL_MAIN]":
(PID.TID 0000.0001)           User time:  32.4880621
(PID.TID 0000.0001)         System time:  1.10083305
(PID.TID 0000.0001)     Wall clock time:  34.626096
(PID.TID 0000.0001)          No. starts: 1
(PID.TID 0000.0001)           No. stops: 1
(PID.TID 0000.0001)   Seconds in section "INITIALISE_FIXED       [THE_MODEL_MAIN]":
(PID.TID 0000.0001)           User time:  0.584910971
(PID.TID 0000.0001)         System time:  0.195969994
(PID.TID 0000.0001)     Wall clock time:  1.31686497
(PID.TID 0000.0001)          No. starts: 1
(PID.TID 0000.0001)           No. stops: 1
(PID.TID 0000.0001)   Seconds in section "THE_MAIN_LOOP          [THE_MODEL_MAIN]":
(PID.TID 0000.0001)           User time:  31.6141954
(PID.TID 0000.0001)         System time:  0.583911002
(PID.TID 0000.0001)     Wall clock time:  32.5825529
(PID.TID 0000.0001)          No. starts: 1
(PID.TID 0000.0001)           No. stops: 1
(PID.TID 0000.0001)   Seconds in section "INITIALISE_VARIA    [THE_MAIN_LOOP]":
(PID.TID 0000.0001)           User time:  0.981851041
(PID.TID 0000.0001)         System time:  0.321951032
(PID.TID 0000.0001)     Wall clock time:  1.43815589
(PID.TID 0000.0001)          No. starts: 1
(PID.TID 0000.0001)           No. stops: 1
(PID.TID 0000.0001)   Seconds in section "MAIN LOOP           [THE_MAIN_LOOP]":
(PID.TID 0000.0001)           User time:  30.6323444
(PID.TID 0000.0001)         System time:  0.26195997
(PID.TID 0000.0001)     Wall clock time:  31.144274
(PID.TID 0000.0001)          No. starts: 1
(PID.TID 0000.0001)           No. stops: 1
(PID.TID 0000.0001)   Seconds in section "FORWARD_STEP        [THE_MAIN_LOOP]":
(PID.TID 0000.0001)           User time:  30.6323444
(PID.TID 0000.0001)         System time:  0.26195997
(PID.TID 0000.0001)     Wall clock time:  31.1438217
(PID.TID 0000.0001)          No. starts: 10
(PID.TID 0000.0001)           No. stops: 10
(PID.TID 0000.0001)   Seconds in section "DO_STATEVARS_DIAGS  [FORWARD_STEP]":
(PID.TID 0000.0001)           User time:  0.252964139
(PID.TID 0000.0001)         System time:  0.
(PID.TID 0000.0001)     Wall clock time:  0.253854752
(PID.TID 0000.0001)          No. starts: 30
(PID.TID 0000.0001)           No. stops: 30
(PID.TID 0000.0001)   Seconds in section "LOAD_FIELDS_DRIVER  [FORWARD_STEP]":
(PID.TID 0000.0001)           User time:  0.762883186
(PID.TID 0000.0001)         System time:  0.018996954
(PID.TID 0000.0001)     Wall clock time:  0.973163843
(PID.TID 0000.0001)          No. starts: 10
(PID.TID 0000.0001)           No. stops: 10
(PID.TID 0000.0001)   Seconds in section "EXF_GETFORCING     [LOAD_FLDS_DRIVER]":
(PID.TID 0000.0001)           User time:  0.762883186
(PID.TID 0000.0001)         System time:  0.018996954
(PID.TID 0000.0001)     Wall clock time:  0.972351074
(PID.TID 0000.0001)          No. starts: 10
(PID.TID 0000.0001)           No. stops: 10
(PID.TID 0000.0001)   Seconds in section "DO_ATMOSPHERIC_PHYS [FORWARD_STEP]":
(PID.TID 0000.0001)           User time:  0.
(PID.TID 0000.0001)         System time:  0.
(PID.TID 0000.0001)     Wall clock time:  0.000412225723
(PID.TID 0000.0001)          No. starts: 10
(PID.TID 0000.0001)           No. stops: 10
(PID.TID 0000.0001)   Seconds in section "DO_OCEANIC_PHYS     [FORWARD_STEP]":
(PID.TID 0000.0001)           User time:  9.35258007
(PID.TID 0000.0001)         System time:  0.00899994373
(PID.TID 0000.0001)     Wall clock time:  9.3646822
(PID.TID 0000.0001)          No. starts: 10
(PID.TID 0000.0001)           No. stops: 10
(PID.TID 0000.0001)   Seconds in section "SEAICE_MODEL    [DO_OCEANIC_PHYS]":
(PID.TID 0000.0001)           User time:  5.3501873
(PID.TID 0000.0001)         System time:  0.00300002098
(PID.TID 0000.0001)     Wall clock time:  5.35380483
(PID.TID 0000.0001)          No. starts: 10
(PID.TID 0000.0001)           No. stops: 10
(PID.TID 0000.0001)   Seconds in section "SEAICE_DYNSOLVER   [SEAICE_MODEL]":
(PID.TID 0000.0001)           User time:  5.27119493
(PID.TID 0000.0001)         System time:  0.00300002098
(PID.TID 0000.0001)     Wall clock time:  5.27362776
(PID.TID 0000.0001)          No. starts: 10
(PID.TID 0000.0001)           No. stops: 10
(PID.TID 0000.0001)   Seconds in section "THSICE_MAIN     [DO_OCEANIC_PHYS]":
(PID.TID 0000.0001)           User time:  0.64590168
(PID.TID 0000.0001)         System time:  0.00199997425
(PID.TID 0000.0001)     Wall clock time:  0.650156021
(PID.TID 0000.0001)          No. starts: 10
(PID.TID 0000.0001)           No. stops: 10
(PID.TID 0000.0001)   Seconds in section "DYNAMICS            [FORWARD_STEP]":
(PID.TID 0000.0001)           User time:  6.89495015
(PID.TID 0000.0001)         System time:  0.00499898195
(PID.TID 0000.0001)     Wall clock time:  6.91251707
(PID.TID 0000.0001)          No. starts: 10
(PID.TID 0000.0001)           No. stops: 10
(PID.TID 0000.0001)   Seconds in section "UPDATE_R_STAR       [FORWARD_STEP]":
(PID.TID 0000.0001)           User time:  0.398938894
(PID.TID 0000.0001)         System time:  0.
(PID.TID 0000.0001)     Wall clock time:  0.398560047
(PID.TID 0000.0001)          No. starts: 10
(PID.TID 0000.0001)           No. stops: 10
(PID.TID 0000.0001)   Seconds in section "UPDATE_CG2D         [FORWARD_STEP]":
(PID.TID 0000.0001)           User time:  0.140981436
(PID.TID 0000.0001)         System time:  0.
(PID.TID 0000.0001)     Wall clock time:  0.14033103
(PID.TID 0000.0001)          No. starts: 10
(PID.TID 0000.0001)           No. stops: 10
(PID.TID 0000.0001)   Seconds in section "SOLVE_FOR_PRESSURE  [FORWARD_STEP]":
(PID.TID 0000.0001)           User time:  3.36948681
(PID.TID 0000.0001)         System time:  0.00200003386
(PID.TID 0000.0001)     Wall clock time:  3.37206078
(PID.TID 0000.0001)          No. starts: 10
(PID.TID 0000.0001)           No. stops: 10
(PID.TID 0000.0001)   Seconds in section "MOM_CORRECTION_STEP [FORWARD_STEP]":
(PID.TID 0000.0001)           User time:  0.613912344
(PID.TID 0000.0001)         System time:  0.
(PID.TID 0000.0001)     Wall clock time:  0.613425255
(PID.TID 0000.0001)          No. starts: 10
(PID.TID 0000.0001)           No. stops: 10
(PID.TID 0000.0001)   Seconds in section "UPDATE_ETAH         [FORWARD_STEP]":
(PID.TID 0000.0001)           User time:  0.00399589539
(PID.TID 0000.0001)         System time:  0.
(PID.TID 0000.0001)     Wall clock time:  0.00458598137
(PID.TID 0000.0001)          No. starts: 10
(PID.TID 0000.0001)           No. stops: 10
(PID.TID 0000.0001)   Seconds in section "CALC_R_STAR         [FORWARD_STEP]":
(PID.TID 0000.0001)           User time:  0.0859889984
(PID.TID 0000.0001)         System time:  0.
(PID.TID 0000.0001)     Wall clock time:  0.0852768421
(PID.TID 0000.0001)          No. starts: 10
(PID.TID 0000.0001)           No. stops: 10
(PID.TID 0000.0001)   Seconds in section "BLOCKING_EXCHANGES  [FORWARD_STEP]":
(PID.TID 0000.0001)           User time:  0.815881252
(PID.TID 0000.0001)         System time:  0.
(PID.TID 0000.0001)     Wall clock time:  0.818095446
(PID.TID 0000.0001)          No. starts: 20
(PID.TID 0000.0001)           No. stops: 20
(PID.TID 0000.0001)   Seconds in section "THERMODYNAMICS      [FORWARD_STEP]":
(PID.TID 0000.0001)           User time:  5.39817834
(PID.TID 0000.0001)         System time:  0.019996047
(PID.TID 0000.0001)     Wall clock time:  5.41960716
(PID.TID 0000.0001)          No. starts: 10
(PID.TID 0000.0001)           No. stops: 10
(PID.TID 0000.0001)   Seconds in section "TRC_CORRECTION_STEP [FORWARD_STEP]":
(PID.TID 0000.0001)           User time:  0.0929846764
(PID.TID 0000.0001)         System time:  0.
(PID.TID 0000.0001)     Wall clock time:  0.0935218334
(PID.TID 0000.0001)          No. starts: 10
(PID.TID 0000.0001)           No. stops: 10
(PID.TID 0000.0001)   Seconds in section "DO_STATEVARS_TAVE   [FORWARD_STEP]":
(PID.TID 0000.0001)           User time:  0.
(PID.TID 0000.0001)         System time:  0.
(PID.TID 0000.0001)     Wall clock time:  0.000400781631
(PID.TID 0000.0001)          No. starts: 10
(PID.TID 0000.0001)           No. stops: 10
(PID.TID 0000.0001)   Seconds in section "MONITOR             [FORWARD_STEP]":
(PID.TID 0000.0001)           User time:  2.12767124
(PID.TID 0000.0001)         System time:  0.00300002098
(PID.TID 0000.0001)     Wall clock time:  2.13219213
(PID.TID 0000.0001)          No. starts: 10
(PID.TID 0000.0001)           No. stops: 10
(PID.TID 0000.0001)   Seconds in section "DO_THE_MODEL_IO     [FORWARD_STEP]":
(PID.TID 0000.0001)           User time:  0.31095314
(PID.TID 0000.0001)         System time:  0.202968955
(PID.TID 0000.0001)     Wall clock time:  0.551547527
(PID.TID 0000.0001)          No. starts: 10
(PID.TID 0000.0001)           No. stops: 10
(PID.TID 0000.0001)   Seconds in section "DO_WRITE_PICKUP     [FORWARD_STEP]":
(PID.TID 0000.0001)           User time:  0.
(PID.TID 0000.0001)         System time:  0.
(PID.TID 0000.0001)     Wall clock time:  0.000423192978
(PID.TID 0000.0001)          No. starts: 10
(PID.TID 0000.0001)           No. stops: 10
(PID.TID 0000.0001)   Seconds in section "DO_WRITE_PICKUP        [THE_MODEL_MAIN]":
(PID.TID 0000.0001)           User time:  0.288955688
(PID.TID 0000.0001)         System time:  0.320952058
(PID.TID 0000.0001)     Wall clock time:  0.726490974
(PID.TID 0000.0001)          No. starts: 1
(PID.TID 0000.0001)           No. stops: 1
(PID.TID 0000.0001) // ======================================================
(PID.TID 0000.0001) // Tile <-> Tile communication statistics
(PID.TID 0000.0001) // ======================================================
(PID.TID 0000.0001) // o Tile number: 000001
(PID.TID 0000.0001) //         No. X exchanges =              0
(PID.TID 0000.0001) //            Max. X spins =              0
(PID.TID 0000.0001) //            Min. X spins =     1000000000
(PID.TID 0000.0001) //          Total. X spins =              0
(PID.TID 0000.0001) //            Avg. X spins =       0.00E+00
(PID.TID 0000.0001) //         No. Y exchanges =              0
(PID.TID 0000.0001) //            Max. Y spins =              0
(PID.TID 0000.0001) //            Min. Y spins =     1000000000
(PID.TID 0000.0001) //          Total. Y spins =              0
(PID.TID 0000.0001) //            Avg. Y spins =       0.00E+00
(PID.TID 0000.0001) // o Tile number: 000002
(PID.TID 0000.0001) //         No. X exchanges =              0
(PID.TID 0000.0001) //            Max. X spins =              0
(PID.TID 0000.0001) //            Min. X spins =     1000000000
(PID.TID 0000.0001) //          Total. X spins =              0
(PID.TID 0000.0001) //            Avg. X spins =       0.00E+00
(PID.TID 0000.0001) //         No. Y exchanges =              0
(PID.TID 0000.0001) //            Max. Y spins =              0
(PID.TID 0000.0001) //            Min. Y spins =     1000000000
(PID.TID 0000.0001) //          Total. Y spins =              0
(PID.TID 0000.0001) //            Avg. Y spins =       0.00E+00
(PID.TID 0000.0001) // o Tile number: 000003
(PID.TID 0000.0001) //         No. X exchanges =              0
(PID.TID 0000.0001) //            Max. X spins =              0
(PID.TID 0000.0001) //            Min. X spins =     1000000000
(PID.TID 0000.0001) //          Total. X spins =              0
(PID.TID 0000.0001) //            Avg. X spins =       0.00E+00
(PID.TID 0000.0001) //         No. Y exchanges =              0
(PID.TID 0000.0001) //            Max. Y spins =              0
(PID.TID 0000.0001) //            Min. Y spins =     1000000000
(PID.TID 0000.0001) //          Total. Y spins =              0
(PID.TID 0000.0001) //            Avg. Y spins =       0.00E+00
(PID.TID 0000.0001) // o Tile number: 000004
(PID.TID 0000.0001) //         No. X exchanges =              0
(PID.TID 0000.0001) //            Max. X spins =              0
(PID.TID 0000.0001) //            Min. X spins =     1000000000
(PID.TID 0000.0001) //          Total. X spins =              0
(PID.TID 0000.0001) //            Avg. X spins =       0.00E+00
(PID.TID 0000.0001) //         No. Y exchanges =              0
(PID.TID 0000.0001) //            Max. Y spins =              0
(PID.TID 0000.0001) //            Min. Y spins =     1000000000
(PID.TID 0000.0001) //          Total. Y spins =              0
(PID.TID 0000.0001) //            Avg. Y spins =       0.00E+00
(PID.TID 0000.0001) // o Tile number: 000005
(PID.TID 0000.0001) //         No. X exchanges =              0
(PID.TID 0000.0001) //            Max. X spins =              0
(PID.TID 0000.0001) //            Min. X spins =     1000000000
(PID.TID 0000.0001) //          Total. X spins =              0
(PID.TID 0000.0001) //            Avg. X spins =       0.00E+00
(PID.TID 0000.0001) //         No. Y exchanges =              0
(PID.TID 0000.0001) //            Max. Y spins =              0
(PID.TID 0000.0001) //            Min. Y spins =     1000000000
(PID.TID 0000.0001) //          Total. Y spins =              0
(PID.TID 0000.0001) //            Avg. Y spins =       0.00E+00
(PID.TID 0000.0001) // o Tile number: 000006
(PID.TID 0000.0001) //         No. X exchanges =              0
(PID.TID 0000.0001) //            Max. X spins =              0
(PID.TID 0000.0001) //            Min. X spins =     1000000000
(PID.TID 0000.0001) //          Total. X spins =              0
(PID.TID 0000.0001) //            Avg. X spins =       0.00E+00
(PID.TID 0000.0001) //         No. Y exchanges =              0
(PID.TID 0000.0001) //            Max. Y spins =              0
(PID.TID 0000.0001) //            Min. Y spins =     1000000000
(PID.TID 0000.0001) //          Total. Y spins =              0
(PID.TID 0000.0001) //            Avg. Y spins =       0.00E+00
(PID.TID 0000.0001) // o Thread number: 000001
(PID.TID 0000.0001) //            No. barriers =          45356
(PID.TID 0000.0001) //      Max. barrier spins =              1
(PID.TID 0000.0001) //      Min. barrier spins =              1
(PID.TID 0000.0001) //     Total barrier spins =          45356
(PID.TID 0000.0001) //      Avg. barrier spins =       1.00E+00
