(PID.TID 0000.0001) 
(PID.TID 0000.0001) // ======================================================
(PID.TID 0000.0001) //                      MITgcm UV
(PID.TID 0000.0001) //                      =========
(PID.TID 0000.0001) // ======================================================
(PID.TID 0000.0001) // execution environment starting up...
(PID.TID 0000.0001) 
(PID.TID 0000.0001) // MITgcmUV version:  checkpoint69j
(PID.TID 0000.0001) // Build user:        jm_c
(PID.TID 0000.0001) // Build host:        villon
(PID.TID 0000.0001) // Build date:        Sun Dec 21 13:35:48 EST 2025
(PID.TID 0000.0001) 
(PID.TID 0000.0001) // =======================================================
(PID.TID 0000.0001) // Execution Environment parameter file "eedata"
(PID.TID 0000.0001) // =======================================================
(PID.TID 0000.0001) ># Example "eedata" file
(PID.TID 0000.0001) ># Lines beginning "#" are comments
(PID.TID 0000.0001) >#  nTx      :: No. threads per process in X
(PID.TID 0000.0001) >#  nTy      :: No. threads per process in Y
(PID.TID 0000.0001) ># debugMode :: print debug msg (sequence of S/R calls)
(PID.TID 0000.0001) > &EEPARMS
(PID.TID 0000.0001) > useCubedSphereExchange=.TRUE.,
(PID.TID 0000.0001) > nTx=1,
(PID.TID 0000.0001) > nTy=1,
(PID.TID 0000.0001) > /
(PID.TID 0000.0001) ># Note: Some systems use & as the namelist terminator (as shown here).
(PID.TID 0000.0001) >#       Other systems use a / character.
(PID.TID 0000.0001) 
(PID.TID 0000.0001) // =======================================================
(PID.TID 0000.0001) // Computational Grid Specification ( see files "SIZE.h" )
(PID.TID 0000.0001) //                                  ( and "eedata"       )
(PID.TID 0000.0001) // =======================================================
(PID.TID 0000.0001)      nPx =    1 ; /* No. processes in X */
(PID.TID 0000.0001)      nPy =    1 ; /* No. processes in Y */
(PID.TID 0000.0001)      nSx =   12 ; /* No. tiles in X per process */
(PID.TID 0000.0001)      nSy =    1 ; /* No. tiles in Y per process */
(PID.TID 0000.0001)      sNx =   32 ; /* Tile size in X */
(PID.TID 0000.0001)      sNy =   16 ; /* Tile size in Y */
(PID.TID 0000.0001)      OLx =    4 ; /* Tile overlap distance in X */
(PID.TID 0000.0001)      OLy =    4 ; /* Tile overlap distance in Y */
(PID.TID 0000.0001)      nTx =    1 ; /* No. threads in X per process */
(PID.TID 0000.0001)      nTy =    1 ; /* No. threads in Y per process */
(PID.TID 0000.0001)       Nr =   15 ; /* No. levels in the vertical   */
(PID.TID 0000.0001)       Nx =  384 ; /* Total domain size in X ( = nPx*nSx*sNx ) */
(PID.TID 0000.0001)       Ny =   16 ; /* Total domain size in Y ( = nPy*nSy*sNy ) */
(PID.TID 0000.0001)   nTiles =   12 ; /* Total no. tiles per process ( = nSx*nSy ) */
(PID.TID 0000.0001)   nProcs =    1 ; /* Total no. processes ( = nPx*nPy ) */
(PID.TID 0000.0001) nThreads =    1 ; /* Total no. threads per process ( = nTx*nTy ) */
(PID.TID 0000.0001) usingMPI =    F ; /* Flag used to control whether MPI is in use */
(PID.TID 0000.0001)                   /*  note: To execute a program with MPI calls */
(PID.TID 0000.0001)                   /*  it must be launched appropriately e.g     */
(PID.TID 0000.0001)                   /*  "mpirun -np 64 ......"                    */
(PID.TID 0000.0001) useCoupler=   F ; /* Flag used to control communications with   */
(PID.TID 0000.0001)                   /*  other model components, through a coupler */
(PID.TID 0000.0001) useNest2W_parent =    F ;/* Control 2-W Nesting comm */
(PID.TID 0000.0001) useNest2W_child  =    F ;/* Control 2-W Nesting comm */
(PID.TID 0000.0001) debugMode =    F ; /* print debug msg. (sequence of S/R calls)  */
(PID.TID 0000.0001) printMapIncludesZeros=    F ; /* print zeros in Std.Output maps */
(PID.TID 0000.0001) maxLengthPrt1D=   65 /* maxLength of 1D array printed to StdOut */
(PID.TID 0000.0001) 
(PID.TID 0000.0001) // ======================================================
(PID.TID 0000.0001) // Mapping of tiles to threads
(PID.TID 0000.0001) // ======================================================
(PID.TID 0000.0001) // -o- Thread   1, tiles (   1:  12,   1:   1)
(PID.TID 0000.0001) 
(PID.TID 0000.0001) W2_READPARMS: file data.exch2 not found
(PID.TID 0000.0001) => use W2_EXCH2 default: regular 6-facets Cube
(PID.TID 0000.0001) W2_useE2ioLayOut=    T ;/* T: use Exch2 glob IO map; F: use model default */
(PID.TID 0000.0001) W2_mapIO        =  -1 ; /* select option for Exch2 global-IO map */
(PID.TID 0000.0001) W2_printMsg     =  -1 ; /* select option for printing information */
(PID.TID 0000.0001) ===== Start setting W2 TOPOLOGY:
(PID.TID 0000.0001)  write to log-file: w2_tile_topology.0000.log
(PID.TID 0000.0001) =====       setting W2 TOPOLOGY: Done
(PID.TID 0000.0001) 
(PID.TID 0000.0001)  INI_PARMS: opening model parameter file "data"
(PID.TID 0000.0001)  OPEN_COPY_DATA_FILE: opening file data
(PID.TID 0000.0001) // =======================================================
(PID.TID 0000.0001) // Parameter file "data"
(PID.TID 0000.0001) // =======================================================
(PID.TID 0000.0001) ># ====================
(PID.TID 0000.0001) ># | Model parameters |
(PID.TID 0000.0001) ># ====================
(PID.TID 0000.0001) >#
(PID.TID 0000.0001) ># Continuous equation parameters
(PID.TID 0000.0001) > &PARM01
(PID.TID 0000.0001) > tRef=15*20.,
(PID.TID 0000.0001) > sRef=15*35.,
(PID.TID 0000.0001) > viscAh =3.E5,
(PID.TID 0000.0001) >#- biharmonic Viscosity: 3.e15 is close to the stability limit with deltaTmom=20mn
(PID.TID 0000.0001) >#viscA4 =3.E15,
(PID.TID 0000.0001) > viscAr =1.E-3,
(PID.TID 0000.0001) > diffKhT=0.,
(PID.TID 0000.0001) > diffK4T=0.,
(PID.TID 0000.0001) >#- diffKrT unused when compiled with ALLOW_3D_DIFFKR
(PID.TID 0000.0001) >#diffKrT=3.E-5,
(PID.TID 0000.0001) > diffKhS=0.,
(PID.TID 0000.0001) > diffK4S=0.,
(PID.TID 0000.0001) > diffKrS=3.E-5,
(PID.TID 0000.0001) > ivdc_kappa=10.,
(PID.TID 0000.0001) > implicitDiffusion=.TRUE.,
(PID.TID 0000.0001) > gravity=9.81,
(PID.TID 0000.0001) > rhoConst=1035.,
(PID.TID 0000.0001) > rhoConstFresh=1000.,
(PID.TID 0000.0001) > eosType='JMD95Z',
(PID.TID 0000.0001) > staggerTimeStep=.TRUE.,
(PID.TID 0000.0001) > vectorInvariantMomentum=.TRUE.,
(PID.TID 0000.0001) > implicitFreeSurface=.TRUE.,
(PID.TID 0000.0001) > tempAdvScheme=30,
(PID.TID 0000.0001) > saltAdvScheme=30,
(PID.TID 0000.0001) > exactConserv=.TRUE.,
(PID.TID 0000.0001) > select_rStar=1,
(PID.TID 0000.0001) > nonlinFreeSurf=2,
(PID.TID 0000.0001) > hFacInf=0.2,
(PID.TID 0000.0001) > hFacSup=2.0,
(PID.TID 0000.0001) > useRealFreshWaterFlux=.TRUE.,
(PID.TID 0000.0001) > hFacMin=.1,
(PID.TID 0000.0001) > hFacMinDr=20.,
(PID.TID 0000.0001) > readBinaryPrec=64,
(PID.TID 0000.0001) > /
(PID.TID 0000.0001) >
(PID.TID 0000.0001) ># Elliptic solver parameters
(PID.TID 0000.0001) > &PARM02
(PID.TID 0000.0001) > cg2dMaxIters=200,
(PID.TID 0000.0001) > cg2dTargetResidual=1.E-9,
(PID.TID 0000.0001) >#cg2dTargetResWunit=6.648E-13,
(PID.TID 0000.0001) > /
(PID.TID 0000.0001) >
(PID.TID 0000.0001) ># Time stepping parameters
(PID.TID 0000.0001) > &PARM03
(PID.TID 0000.0001) > nIter0=72000,
(PID.TID 0000.0001) > nTimeSteps=5,
(PID.TID 0000.0001) > deltaTMom   =1200.,
(PID.TID 0000.0001) > deltaTtracer=86400.,
(PID.TID 0000.0001) > deltaTFreeSurf=86400.,
(PID.TID 0000.0001) > deltaTClock =86400.,
(PID.TID 0000.0001) > abEps = 0.1,
(PID.TID 0000.0001) > alph_AB=0.6,
(PID.TID 0000.0001) > beta_AB=0.0,
(PID.TID 0000.0001) > forcing_In_AB=.FALSE.,
(PID.TID 0000.0001) >#momDissip_In_AB=.FALSE.,
(PID.TID 0000.0001) > pChkptFreq  =311040000.,
(PID.TID 0000.0001) > chkptFreq   = 31104000.,
(PID.TID 0000.0001) >#dumpFreq    = 31104000.,
(PID.TID 0000.0001) >#adjDumpFreq = 31104000.,
(PID.TID 0000.0001) >#monitorFreq = 31104000.,
(PID.TID 0000.0001) >#- forcing is set by EXF
(PID.TID 0000.0001) ># periodicExternalForcing=.TRUE.,
(PID.TID 0000.0001) ># externForcingPeriod=2592000.,
(PID.TID 0000.0001) ># externForcingCycle=31104000.,
(PID.TID 0000.0001) ># 2 months restoring timescale for temperature
(PID.TID 0000.0001) ># tauThetaClimRelax = 5184000.,
(PID.TID 0000.0001) ># 2yrs restoring timescale for salinity
(PID.TID 0000.0001) ># tauSaltClimRelax = 62208000.,
(PID.TID 0000.0001) > monitorFreq   =1.,
(PID.TID 0000.0001) > adjMonitorFreq=1.,
(PID.TID 0000.0001) > dumpFreq    = 432000.,
(PID.TID 0000.0001) > adjDumpFreq = 432000.,
(PID.TID 0000.0001) > /
(PID.TID 0000.0001) >
(PID.TID 0000.0001) ># Gridding parameters
(PID.TID 0000.0001) > &PARM04
(PID.TID 0000.0001) > usingCurvilinearGrid=.TRUE.,
(PID.TID 0000.0001) > horizGridFile='grid_cs32',
(PID.TID 0000.0001) > delR= 50., 70., 100., 140., 190.,
(PID.TID 0000.0001) >       240., 290., 340., 390., 440.,
(PID.TID 0000.0001) >       490., 540., 590., 640., 690.,
(PID.TID 0000.0001) > /
(PID.TID 0000.0001) >
(PID.TID 0000.0001) ># Input datasets
(PID.TID 0000.0001) > &PARM05
(PID.TID 0000.0001) > bathyFile      ='bathy_Hmin50.bin',
(PID.TID 0000.0001) > hydrogThetaFile='lev_T_cs_15k.bin',
(PID.TID 0000.0001) > hydrogSaltFile ='lev_S_cs_15k.bin',
(PID.TID 0000.0001) >#- forcing is set by EXF
(PID.TID 0000.0001) ># zonalWindFile  ='trenberth_taux.bin',
(PID.TID 0000.0001) ># meridWindFile  ='trenberth_tauy.bin',
(PID.TID 0000.0001) ># thetaClimFile  ='lev_surfT_cs_12m.bin',
(PID.TID 0000.0001) ># saltClimFile   ='lev_surfS_cs_12m.bin',
(PID.TID 0000.0001) ># surfQnetFile   ='shiQnet_cs32.bin',
(PID.TID 0000.0001) ># EmPmRFile      ='shiEmPR_cs32.bin',
(PID.TID 0000.0001) > /
(PID.TID 0000.0001) 
(PID.TID 0000.0001)  INI_PARMS ; starts to read PARM01
(PID.TID 0000.0001)  INI_PARMS ; read PARM01 : OK
(PID.TID 0000.0001)  INI_PARMS ; starts to read PARM02
(PID.TID 0000.0001)  INI_PARMS ; read PARM02 : OK
(PID.TID 0000.0001)  INI_PARMS ; starts to read PARM03
(PID.TID 0000.0001)  INI_PARMS ; read PARM03 : OK
(PID.TID 0000.0001)  INI_PARMS ; starts to read PARM04
(PID.TID 0000.0001)  INI_PARMS ; read PARM04 : OK
(PID.TID 0000.0001)  INI_PARMS ; starts to read PARM05
(PID.TID 0000.0001)  INI_PARMS ; read PARM05 : OK
(PID.TID 0000.0001)  INI_PARMS: finished reading file "data"
(PID.TID 0000.0001)  PACKAGES_BOOT: opening data.pkg
(PID.TID 0000.0001)  OPEN_COPY_DATA_FILE: opening file data.pkg
(PID.TID 0000.0001) // =======================================================
(PID.TID 0000.0001) // Parameter file "data.pkg"
(PID.TID 0000.0001) // =======================================================
(PID.TID 0000.0001) ># Packages
(PID.TID 0000.0001) > &PACKAGES
(PID.TID 0000.0001) > useGMRedi = .TRUE.,
(PID.TID 0000.0001) > useEXF    = .TRUE.,
(PID.TID 0000.0001) > useCAL    = .TRUE.,
(PID.TID 0000.0001) > useTHSICE = .TRUE.,
(PID.TID 0000.0001) >#useDiagnostics=.TRUE.,
(PID.TID 0000.0001) >#useMNC=.TRUE.,
(PID.TID 0000.0001) > useGrdchk=.TRUE.,
(PID.TID 0000.0001) > /
(PID.TID 0000.0001) 
(PID.TID 0000.0001)  PACKAGES_BOOT: finished reading data.pkg
(PID.TID 0000.0001)  PACKAGES_BOOT: On/Off package Summary
 --------  pkgs with a standard "usePKG" On/Off switch in "data.pkg":  --------
 pkg/gmredi               compiled   and   used ( useGMRedi                = T )
 pkg/cal                  compiled   and   used ( useCAL                   = T )
 pkg/exf                  compiled   and   used ( useEXF                   = T )
 pkg/autodiff             compiled   and   used ( useAUTODIFF              = T )
 pkg/grdchk               compiled   and   used ( useGrdchk                = T )
 pkg/ctrl                 compiled   and   used ( useCTRL                  = T )
 pkg/seaice               compiled but not used ( useSEAICE                = F )
 pkg/thsice               compiled   and   used ( useThSIce                = T )
 pkg/diagnostics          compiled but not used ( useDiagnostics           = F )
 -------- pkgs without standard "usePKG" On/Off switch in "data.pkg":  --------
 pkg/generic_advdiff      compiled   and   used ( useGAD                   = T )
 pkg/mom_common           compiled   and   used ( momStepping              = T )
 pkg/mom_vecinv           compiled   and   used ( +vectorInvariantMomentum = T )
 pkg/monitor              compiled   and   used ( monitorFreq > 0.         = T )
 pkg/debug                compiled but not used ( debugMode                = F )
 pkg/exch2                compiled   and   used
 pkg/rw                   compiled   and   used
 pkg/mdsio                compiled   and   used
 pkg/autodiff             compiled   and   used
 pkg/cost                 compiled   and   used
(PID.TID 0000.0001)  PACKAGES_BOOT: End of package Summary
(PID.TID 0000.0001) 
(PID.TID 0000.0001) CAL_READPARMS: opening data.cal
(PID.TID 0000.0001)  OPEN_COPY_DATA_FILE: opening file data.cal
(PID.TID 0000.0001) // =======================================================
(PID.TID 0000.0001) // Parameter file "data.cal"
(PID.TID 0000.0001) // =======================================================
(PID.TID 0000.0001) >#
(PID.TID 0000.0001) ># *******************
(PID.TID 0000.0001) ># Calendar Parameters
(PID.TID 0000.0001) ># *******************
(PID.TID 0000.0001) > &CAL_NML
(PID.TID 0000.0001) > TheCalendar='model',
(PID.TID 0000.0001) > startDate_1=00010101,
(PID.TID 0000.0001) > startDate_2=000000,
(PID.TID 0000.0001) > /
(PID.TID 0000.0001) 
(PID.TID 0000.0001) CAL_READPARMS: finished reading data.cal
(PID.TID 0000.0001) EXF_READPARMS: opening data.exf
(PID.TID 0000.0001)  OPEN_COPY_DATA_FILE: opening file data.exf
(PID.TID 0000.0001) // =======================================================
(PID.TID 0000.0001) // Parameter file "data.exf"
(PID.TID 0000.0001) // =======================================================
(PID.TID 0000.0001) ># *********************
(PID.TID 0000.0001) ># External Forcing Data
(PID.TID 0000.0001) ># *********************
(PID.TID 0000.0001) > &EXF_NML_01
(PID.TID 0000.0001) >#exf_debugLev      = 3,
(PID.TID 0000.0001) >#useExfCheckRange  = .TRUE.,
(PID.TID 0000.0001) >#useStabilityFct_overIce=.TRUE.,
(PID.TID 0000.0001) >#snow_emissivity   = 0.98,
(PID.TID 0000.0001) >#ice_emissivity    = 0.98,
(PID.TID 0000.0001) > ocean_emissivity  = 1.,
(PID.TID 0000.0001) > atmrho            = 1.22,
(PID.TID 0000.0001) > humid_fac         = .608,
(PID.TID 0000.0001) > ht                = 10.,
(PID.TID 0000.0001) > exf_albedo        = 0.066,
(PID.TID 0000.0001) >#readStressOnAgrid = .TRUE.,
(PID.TID 0000.0001) > readStressOnCgrid = .TRUE.,
(PID.TID 0000.0001) > exf_monFreq       = 0.,
(PID.TID 0000.0001) > repeatPeriod      = 31104000.,
(PID.TID 0000.0001) > exf_iprec         = 64,
(PID.TID 0000.0001) > /
(PID.TID 0000.0001) >
(PID.TID 0000.0001) ># *********************
(PID.TID 0000.0001) > &EXF_NML_02
(PID.TID 0000.0001) >#
(PID.TID 0000.0001) > atempstartdate1   = 00010116,
(PID.TID 0000.0001) >#atempstartdate2   = 180000,
(PID.TID 0000.0001) > atempperiod       = 2592000.0,
(PID.TID 0000.0001) >#
(PID.TID 0000.0001) > aqhstartdate1     = 00010116,
(PID.TID 0000.0001) >#aqhstartdate2     = 180000,
(PID.TID 0000.0001) > aqhperiod         = 2592000.0,
(PID.TID 0000.0001) >#
(PID.TID 0000.0001) > precipstartdate1  = 00010116,
(PID.TID 0000.0001) >#precipstartdate2  = 180000,
(PID.TID 0000.0001) > precipperiod      = 2592000.0,
(PID.TID 0000.0001) >#
(PID.TID 0000.0001) > snowprecipstartdate1= 00010116,
(PID.TID 0000.0001) >#snowprecipstartdate2= 180000,
(PID.TID 0000.0001) > snowprecipperiod    = 2592000.,
(PID.TID 0000.0001) >#
(PID.TID 0000.0001) > runoffstartdate1  = 00010116,
(PID.TID 0000.0001) >#runoffstartdate2  = 180000,
(PID.TID 0000.0001) > runoffperiod      = 2592000.0,
(PID.TID 0000.0001) >#
(PID.TID 0000.0001) > uwindstartdate1   = 00010116,
(PID.TID 0000.0001) >#uwindstartdate2   = 180000,
(PID.TID 0000.0001) > uwindperiod       = 2592000.0,
(PID.TID 0000.0001) >#
(PID.TID 0000.0001) > vwindstartdate1   = 00010116,
(PID.TID 0000.0001) >#vwindstartdate2   = 180000,
(PID.TID 0000.0001) > vwindperiod       = 2592000.0,
(PID.TID 0000.0001) >#
(PID.TID 0000.0001) > ustressstartdate1 = 00010116,
(PID.TID 0000.0001) >#ustressstartdate2 = 180000,
(PID.TID 0000.0001) > ustressperiod     = 2592000.0,
(PID.TID 0000.0001) >#
(PID.TID 0000.0001) > vstressstartdate1 = 00010116,
(PID.TID 0000.0001) >#vstressstartdate2 = 180000,
(PID.TID 0000.0001) > vstressperiod     = 2592000.0,
(PID.TID 0000.0001) >#
(PID.TID 0000.0001) > wspeedstartdate1  = 00010116,
(PID.TID 0000.0001) >#wspeedstartdate2  = 180000,
(PID.TID 0000.0001) > wspeedperiod      = 2592000.0,
(PID.TID 0000.0001) >#
(PID.TID 0000.0001) > swdownstartdate1  = 00010116,
(PID.TID 0000.0001) >#swdownstartdate2  = 180000,
(PID.TID 0000.0001) > swdownperiod      = 2592000.0,
(PID.TID 0000.0001) >#
(PID.TID 0000.0001) > lwdownstartdate1  = 00010116,
(PID.TID 0000.0001) >#lwdownstartdate2  = 180000,
(PID.TID 0000.0001) > lwdownperiod      = 2592000.0,
(PID.TID 0000.0001) >#
(PID.TID 0000.0001) > climsssstartdate1  = 00010116,
(PID.TID 0000.0001) >#climsssstartdate2  = 180000,
(PID.TID 0000.0001) > climsssperiod      = 2592000.0,
(PID.TID 0000.0001) >#
(PID.TID 0000.0001) > climsststartdate1  = 00010116,
(PID.TID 0000.0001) >#climsststartdate2  = 180000,
(PID.TID 0000.0001) > climsstperiod      = 2592000.0,
(PID.TID 0000.0001) >#
(PID.TID 0000.0001) > atempfile         = 'core_t_Air_cs32.bin',
(PID.TID 0000.0001) > aqhfile           = 'core_q_air_cs32.bin',
(PID.TID 0000.0001) > ustressfile       = 'trenberth_taux.bin',
(PID.TID 0000.0001) > vstressfile       = 'trenberth_tauy.bin',
(PID.TID 0000.0001) >#uwindfile         = 'core_u_wind_cs32.bin',
(PID.TID 0000.0001) >#vwindfile         = 'core_v_wind_cs32.bin',
(PID.TID 0000.0001) > wspeedfile        = 'core_wndSpd_cs32.bin',
(PID.TID 0000.0001) > precipfile        = 'core_prec_1_cs32.bin',
(PID.TID 0000.0001) > snowprecipfile    = 'core_snwP_1_cs32.bin',
(PID.TID 0000.0001) > lwdownfile        = 'core_dwnLw_cs32.bin',
(PID.TID 0000.0001) > swdownfile        = 'core_dwnSw_cs32.bin',
(PID.TID 0000.0001) > runoffFile        = 'core_rnof_1_cs32.bin'
(PID.TID 0000.0001) > climsstfile       = 'lev_surfT_cs_12m.bin',
(PID.TID 0000.0001) > climsssfile       = 'lev_surfS_cs_12m.bin',
(PID.TID 0000.0001) >#
(PID.TID 0000.0001) > /
(PID.TID 0000.0001) >
(PID.TID 0000.0001) ># *********************
(PID.TID 0000.0001) > &EXF_NML_03
(PID.TID 0000.0001) > /
(PID.TID 0000.0001) >
(PID.TID 0000.0001) ># *********************
(PID.TID 0000.0001) > &EXF_NML_04
(PID.TID 0000.0001) > /
(PID.TID 0000.0001) 
(PID.TID 0000.0001) EXF_READPARMS: reading EXF_NML_01
(PID.TID 0000.0001) EXF_READPARMS: reading EXF_NML_02
(PID.TID 0000.0001) EXF_READPARMS: reading EXF_NML_03
(PID.TID 0000.0001) EXF_READPARMS: finished reading data.exf
(PID.TID 0000.0001)  GM_READPARMS: opening data.gmredi
(PID.TID 0000.0001)  OPEN_COPY_DATA_FILE: opening file data.gmredi
(PID.TID 0000.0001) // =======================================================
(PID.TID 0000.0001) // Parameter file "data.gmredi"
(PID.TID 0000.0001) // =======================================================
(PID.TID 0000.0001) ># GM+Redi package parameters:
(PID.TID 0000.0001) >#     GM_Small_Number  :: epsilon used in computing the slope
(PID.TID 0000.0001) >#     GM_slopeSqCutoff :: slope^2 cut-off value
(PID.TID 0000.0001) >
(PID.TID 0000.0001) >#-from MOM :
(PID.TID 0000.0001) ># GM_background_K: 	G & Mc.W  diffusion coefficient
(PID.TID 0000.0001) ># GM_maxSlope    :	max slope of isopycnals
(PID.TID 0000.0001) ># GM_Scrit       :	transition for scaling diffusion coefficient
(PID.TID 0000.0001) ># GM_Sd          :	half width scaling for diffusion coefficient
(PID.TID 0000.0001) ># GM_taper_scheme:	slope clipping or one of the tapering schemes
(PID.TID 0000.0001) ># GM_Kmin_horiz  :	horizontal diffusion minimum value
(PID.TID 0000.0001) >
(PID.TID 0000.0001) >#-Option parameters (needs to "define" options in GMREDI_OPTIONS.h")
(PID.TID 0000.0001) ># GM_isopycK     :	isopycnal diffusion coefficient (default=GM_background_K)
(PID.TID 0000.0001) ># GM_AdvForm     :	turn on GM Advective form       (default=Skew flux form)
(PID.TID 0000.0001) >
(PID.TID 0000.0001) > &GM_PARM01
(PID.TID 0000.0001) >  GM_Small_Number  = 1.D-20,
(PID.TID 0000.0001) >  GM_slopeSqCutoff = 1.D+08,
(PID.TID 0000.0001) >  GM_AdvForm         = .FALSE.,
(PID.TID 0000.0001) >  GM_background_K    = 1.D+3,
(PID.TID 0000.0001) >  GM_taper_scheme    = 'dm95',
(PID.TID 0000.0001) >  GM_maxSlope        = 1.D-2,
(PID.TID 0000.0001) >  GM_Kmin_horiz      = 50.,
(PID.TID 0000.0001) >  GM_Scrit           = 4.D-3,
(PID.TID 0000.0001) >  GM_Sd              = 1.D-3,
(PID.TID 0000.0001) >#  GM_Visbeck_alpha   = 1.5D-2,
(PID.TID 0000.0001) >  GM_Visbeck_alpha   = 0.,
(PID.TID 0000.0001) >  GM_Visbeck_length  = 2.D+5,
(PID.TID 0000.0001) >  GM_Visbeck_depth   = 1.D+3,
(PID.TID 0000.0001) >  GM_Visbeck_maxval_K= 2.5D+3,
(PID.TID 0000.0001) > /
(PID.TID 0000.0001) >
(PID.TID 0000.0001) >
(PID.TID 0000.0001) 
(PID.TID 0000.0001)  GM_READPARMS: finished reading data.gmredi
(PID.TID 0000.0001)  THSICE_READPARMS: opening data.ice
(PID.TID 0000.0001)  OPEN_COPY_DATA_FILE: opening file data.ice
(PID.TID 0000.0001) // =======================================================
(PID.TID 0000.0001) // Parameter file "data.ice"
(PID.TID 0000.0001) // =======================================================
(PID.TID 0000.0001) > &THSICE_CONST
(PID.TID 0000.0001) > Tf0kel  = 273.15,
(PID.TID 0000.0001) >#- with LANL albedo:
(PID.TID 0000.0001) >#albWarmSnow= 0.75,
(PID.TID 0000.0001) >#- for full ice-fraction :
(PID.TID 0000.0001) >#fracEnMelt = 0.,
(PID.TID 0000.0001) >#iceMaskMin = 1.,
(PID.TID 0000.0001) >#hThinIce   = 0.01,
(PID.TID 0000.0001) >#hThickIce  = 100.,
(PID.TID 0000.0001) >#- with fractional ice:
(PID.TID 0000.0001) > iceMaskMin = 0.05,
(PID.TID 0000.0001) > hiMax      = 10.,
(PID.TID 0000.0001) > hsMax      = 10.,
(PID.TID 0000.0001) >#albIceMax  = 0.7,
(PID.TID 0000.0001) >#albIceMin  = 0.7,
(PID.TID 0000.0001) > nitMaxTsf=1,
(PID.TID 0000.0001) > /
(PID.TID 0000.0001) >
(PID.TID 0000.0001) > &THSICE_PARM01
(PID.TID 0000.0001) >#StartIceModel=1,
(PID.TID 0000.0001) > stressReduction=0.,
(PID.TID 0000.0001) >#thSIce_diagFreq=2592000.,
(PID.TID 0000.0001) >#thSIce_monFreq=864000.,
(PID.TID 0000.0001) > thSIce_monFreq=1.,
(PID.TID 0000.0001) > /
(PID.TID 0000.0001) >
(PID.TID 0000.0001) > &THSICE_COST
(PID.TID 0000.0001) >#Parameter related to thsice-specific cost functions
(PID.TID 0000.0001) > /
(PID.TID 0000.0001) >
(PID.TID 0000.0001) 
(PID.TID 0000.0001)  THSICE_READPARMS: read THSICE_CONST
(PID.TID 0000.0001)  THSICE_READPARMS: read THSICE_PARM01
(PID.TID 0000.0001)  THSICE_READPARMS: read THSICE_COST
 ThSI:       rhos        =  3.3000000000000E+02
 ThSI:       rhoi        =  9.0000000000000E+02
 ThSI:       rhosw       =  1.0350000000000E+03
 ThSI:       rhofw       =  1.0000000000000E+03
 ThSI:       floodFac    =  4.0909090909091E-01
 ThSI:       cpIce       =  2.1060000000000E+03
 ThSI:       cpWater     =  3.9940000000000E+03
 ThSI:       kIce        =  2.0300000000000E+00
 ThSI:       kSnow       =  3.0000000000000E-01
 ThSI:       bMeltCoef   =  6.0000000000000E-03
 ThSI:       Lfresh      =  3.3400000000000E+05
 ThSI:       qsnow       =  3.3400000000000E+05
 ThSI:       albColdSnow =  8.5000000000000E-01
 ThSI:       albWarmSnow =  7.0000000000000E-01
 ThSI:       tempSnowAlb = -1.0000000000000E+01
 ThSI:       albOldSnow  =  5.5000000000000E-01
 ThSI:       hNewSnowAge =  2.0000000000000E-03
 ThSI:       snowAgTime  =  4.3200000000000E+06
 ThSI:       albIceMax   =  6.5000000000000E-01
 ThSI:       albIceMin   =  2.0000000000000E-01
 ThSI:       hAlbIce     =  5.0000000000000E-01
 ThSI:       hAlbSnow    =  3.0000000000000E-01
 ThSI:       i0swFrac    =  3.0000000000000E-01
 ThSI:       ksolar      =  1.5000000000000E+00
 ThSI:       dhSnowLin   =  0.0000000000000E+00
 ThSI:       saltIce     =  4.0000000000000E+00
 ThSI:       S_winton    =  1.0000000000000E+00
 ThSI:       mu_Tf       =  5.4000000000000E-02
 ThSI:       Tf0kel      =  2.7315000000000E+02
 ThSI:       Tmlt1       = -5.4000000000000E-02
 ThSI:       Terrmax     =  5.0000000000000E-01
 ThSI:       nitMaxTsf   =         1
 ThSI:       hIceMin     =  1.0000000000000E-02
 ThSI:       hiMax       =  1.0000000000000E+01
 ThSI:       hsMax       =  1.0000000000000E+01
 ThSI:       iceMaskMax  =  1.0000000000000E+00
 ThSI:       iceMaskMin  =  5.0000000000000E-02
 ThSI:       fracEnMelt  =  4.0000000000000E-01
 ThSI:       fracEnFreez =  0.0000000000000E+00
 ThSI:       hThinIce    =  2.0000000000000E-01
 ThSI:       hThickIce   =  2.5000000000000E+00
 ThSI:       hNewIceMax  =  1.0000000000000E+01
 ThSI: stressReduction   =  0.0000000000000E+00
 ThSI: thSIce_skipThermo =         F
 ThSI: thSIceAdvScheme   =         0
 ThSI: thSIceBalanceAtmFW=         0
 ThSI: thSIce_diffK      =  0.0000000000000E+00
 ThSI: thSIce_deltaT     =  8.6400000000000E+04
 ThSI: ocean_deltaT      =  8.6400000000000E+04
 ThSI: stepFwd_oceMxL    =         F
 ThSI: tauRelax_MxL      =  0.0000000000000E+00
 ThSI: tauRelax_MxL_salt =  0.0000000000000E+00
 ThSI: hMxL_default      =  5.0000000000000E+01
 ThSI: sMxL_default      =  3.5000000000000E+01
 ThSI: vMxL_default      =  5.0000000000000E-02
 ThSI: thSIce_diagFreq   =  4.3200000000000E+05
 ThSI: thSIce_monFreq    =  1.0000000000000E+00
 ThSI: startIceModel     =         0
(PID.TID 0000.0001) AUTODIFF_READPARMS: opening data.autodiff
(PID.TID 0000.0001)  OPEN_COPY_DATA_FILE: opening file data.autodiff
(PID.TID 0000.0001) // =======================================================
(PID.TID 0000.0001) // Parameter file "data.autodiff"
(PID.TID 0000.0001) // =======================================================
(PID.TID 0000.0001) ># =========================
(PID.TID 0000.0001) ># pkg AUTODIFF parameters :
(PID.TID 0000.0001) ># =========================
(PID.TID 0000.0001) >#  inAdExact :: get an exact adjoint (no approximation) (def=.True.)
(PID.TID 0000.0001) >#
(PID.TID 0000.0001) > &AUTODIFF_PARM01
(PID.TID 0000.0001) ># inAdExact = .FALSE.,
(PID.TID 0000.0001) > /
(PID.TID 0000.0001) 
(PID.TID 0000.0001) AUTODIFF_READPARMS: finished reading data.autodiff
(PID.TID 0000.0001) // ===================================
(PID.TID 0000.0001) // AUTODIFF parameters :
(PID.TID 0000.0001) // ===================================
(PID.TID 0000.0001) inAdExact = /* get an exact adjoint (no approximation) */
(PID.TID 0000.0001)                   T
(PID.TID 0000.0001)     ;
(PID.TID 0000.0001) useApproxAdvectionInAdMode = /* approximate AD-advection */
(PID.TID 0000.0001)                   F
(PID.TID 0000.0001)     ;
(PID.TID 0000.0001) cg2dFullAdjoint = /* use full hand written cg2d adjoint (no approximation) */
(PID.TID 0000.0001)                   F
(PID.TID 0000.0001)     ;
(PID.TID 0000.0001) useKPPinAdMode = /* use KPP in adjoint mode */
(PID.TID 0000.0001)                   F
(PID.TID 0000.0001)     ;
(PID.TID 0000.0001) useGMRediInAdMode = /* use GMRedi in adjoint mode */
(PID.TID 0000.0001)                   T
(PID.TID 0000.0001)     ;
(PID.TID 0000.0001) useSEAICEinAdMode = /* use SEAICE in adjoint mode */
(PID.TID 0000.0001)                   F
(PID.TID 0000.0001)     ;
(PID.TID 0000.0001) useGGL90inAdMode = /* use GGL90 in adjoint mode */
(PID.TID 0000.0001)                   F
(PID.TID 0000.0001)     ;
(PID.TID 0000.0001) useSALT_PLUMEinAdMode = /* use SALT_PLUME in adjoint mode */
(PID.TID 0000.0001)                   F
(PID.TID 0000.0001)     ;
(PID.TID 0000.0001) SEAICEuseDYNAMICSswitchInAd = /* switch On/Off SEAICE Dyn in AD mode */
(PID.TID 0000.0001)                   F
(PID.TID 0000.0001)     ;
(PID.TID 0000.0001) SEAICEuseFREEDRIFTswitchInAd= /* switch On/Off Free-Drift in AD mode */
(PID.TID 0000.0001)                   F
(PID.TID 0000.0001)     ;
(PID.TID 0000.0001) SEAICEapproxLevInAd = /* -1:SEAICE_FAKE, >0:other adjoint approximation */
(PID.TID 0000.0001)                       0
(PID.TID 0000.0001)     ;
(PID.TID 0000.0001) dumpAdVarExch = /* control adexch before dumpinp */
(PID.TID 0000.0001)                       2
(PID.TID 0000.0001)     ;
(PID.TID 0000.0001) mon_AdVarExch = /* control adexch before monitor */
(PID.TID 0000.0001)                       2
(PID.TID 0000.0001)     ;
(PID.TID 0000.0001) viscFacInFw = /* viscosity factor for forward model */
(PID.TID 0000.0001)                 1.000000000000000E+00
(PID.TID 0000.0001)     ;
(PID.TID 0000.0001) viscFacInAd = /* viscosity factor for adjoint */
(PID.TID 0000.0001)                 1.000000000000000E+00
(PID.TID 0000.0001)     ;
(PID.TID 0000.0001) SIregFacInAd = /* sea ice factor for adjoint model */
(PID.TID 0000.0001)                 1.234567000000000E+05
(PID.TID 0000.0001)     ;
(PID.TID 0000.0001) SIregFacInFw = /* sea ice factor for forward model */
(PID.TID 0000.0001)                 1.234567000000000E+05
(PID.TID 0000.0001)     ;
(PID.TID 0000.0001) 
(PID.TID 0000.0001) OPTIM_READPARMS: opening data.optim
(PID.TID 0000.0001)  OPEN_COPY_DATA_FILE: opening file data.optim
(PID.TID 0000.0001) // =======================================================
(PID.TID 0000.0001) // Parameter file "data.optim"
(PID.TID 0000.0001) // =======================================================
(PID.TID 0000.0001) > &OPTIM
(PID.TID 0000.0001) > optimcycle=0,
(PID.TID 0000.0001) > /
(PID.TID 0000.0001) 
(PID.TID 0000.0001) OPTIM_READPARMS: finished reading data.optim
(PID.TID 0000.0001) CTRL_READPARMS: opening data.ctrl
(PID.TID 0000.0001)  OPEN_COPY_DATA_FILE: opening file data.ctrl
(PID.TID 0000.0001) // =======================================================
(PID.TID 0000.0001) // Parameter file "data.ctrl"
(PID.TID 0000.0001) // =======================================================
(PID.TID 0000.0001) ># This is a somewhat untypical namelist file for the ctrl package. It is
(PID.TID 0000.0001) ># meant to illustrate the difference between the old method of declaring
(PID.TID 0000.0001) ># control parameters (active when ctrlUseGen=.FALSE.) and the new method with
(PID.TID 0000.0001) ># the generic control variables (active when ctrlUseGen=.TRUE.). This
(PID.TID 0000.0001) ># experiment is special because it enables both old and new method at compile
(PID.TID 0000.0001) ># time --- something that is possible for most, but not all combinations of
(PID.TID 0000.0001) ># control variables --- and therefore it is possible so switch between the
(PID.TID 0000.0001) ># two methods by choosing the appropriate runtime parameters. Both methods
(PID.TID 0000.0001) ># do the same thing for xx_theta, xx_salt, and xx_diffkr.
(PID.TID 0000.0001) >#
(PID.TID 0000.0001) ># - CTRL_NML contains general parameter and the names of the control variable
(PID.TID 0000.0001) ># file names on disk for the old method. These names are really only the
(PID.TID 0000.0001) ># default values and for convenience they are associated with the
(PID.TID 0000.0001) ># corresponding CPP fags that need to be set. Setting the CPP flags is really
(PID.TID 0000.0001) ># the old (deprecated) way of defining which control parameters are used. The
(PID.TID 0000.0001) ># CPP flags of this experiment only define control parameters for the first
(PID.TID 0000.0001) ># timestep, so that any startdate/period are not used in this example. The
(PID.TID 0000.0001) ># behavior cannot be reproduced with the generic control variables method.
(PID.TID 0000.0001) >#
(PID.TID 0000.0001) ># - CTRL_NML_GENARR contains the names of the control variable files (and
(PID.TID 0000.0001) ># control variables) for the generic control variable method. These names are
(PID.TID 0000.0001) ># predefined, but they can be choose at runtime. See the documentations,
(PID.TID 0000.0001) ># chapter 10 for details. The control variables are actually turned on by
(PID.TID 0000.0001) ># specifying non-zero weights files! The surface forcing control variables
(PID.TID 0000.0001) ># are for mean surface values (applied at every time step) and so they are
(PID.TID 0000.0001) ># different from the variables xx_tauu, xx_tauv, xx_sfl, and xx_hfl.
(PID.TID 0000.0001) >#
(PID.TID 0000.0001) ># **********************
(PID.TID 0000.0001) ># ECCO control variables
(PID.TID 0000.0001) ># **********************
(PID.TID 0000.0001) > &CTRL_NML
(PID.TID 0000.0001) > /
(PID.TID 0000.0001) >#
(PID.TID 0000.0001) ># *********************
(PID.TID 0000.0001) ># names for ctrl_pack/unpack
(PID.TID 0000.0001) ># *********************
(PID.TID 0000.0001) > &CTRL_PACKNAMES
(PID.TID 0000.0001) > /
(PID.TID 0000.0001) >#
(PID.TID 0000.0001) ># *********************
(PID.TID 0000.0001) ># names for CTRL_GENARR, CTRL_GENTIM
(PID.TID 0000.0001) ># *********************
(PID.TID 0000.0001) > &CTRL_NML_GENARR
(PID.TID 0000.0001) > xx_genarr3d_file(1)       = 'xx_theta',
(PID.TID 0000.0001) > xx_genarr3d_weight(1)     = 'ones_64b.bin',
(PID.TID 0000.0001) > xx_genarr3d_bounds(1:5,1) = -2.,-1.9,39.,40.,5.,
(PID.TID 0000.0001) >#
(PID.TID 0000.0001) > xx_genarr3d_file(2)       = 'xx_salt',
(PID.TID 0000.0001) > xx_genarr3d_weight(2)     = 'ones_64b.bin',
(PID.TID 0000.0001) ># not clear why this to be commented out,
(PID.TID 0000.0001) ># but the reference results have no bounds applied
(PID.TID 0000.0001) >#xx_genarr3d_bounds(1:5,2) = 29.,29.5,40.5,41.,5.,
(PID.TID 0000.0001) >#
(PID.TID 0000.0001) > xx_genarr3d_file(3)       = 'xx_ptr',
(PID.TID 0000.0001) > xx_genarr3d_weight(3)     = 'ones_64b.bin',
(PID.TID 0000.0001) >#
(PID.TID 0000.0001) > xx_genarr3d_file(4)       = 'xx_diffkr',
(PID.TID 0000.0001) > xx_genarr3d_weight(4)     = 'ones_64b.bin',
(PID.TID 0000.0001) > xx_genarr3d_bounds(1:5,4) = 1.E-6,2.E-6,4.E-4,5.E-4,0.,
(PID.TID 0000.0001) >#
(PID.TID 0000.0001) > xx_gentim2d_file(1)       = 'xx_qnet',
(PID.TID 0000.0001) > xx_gentim2d_weight(1)     = 'ones_64b.bin',
(PID.TID 0000.0001) >#
(PID.TID 0000.0001) > xx_gentim2d_file(2)       = 'xx_empmr',
(PID.TID 0000.0001) > xx_gentim2d_weight(2)     = 'ones_64b.bin',
(PID.TID 0000.0001) >#
(PID.TID 0000.0001) > xx_gentim2d_file(3)       = 'xx_fu',
(PID.TID 0000.0001) > xx_gentim2d_weight(3)     = 'ones_64b.bin',
(PID.TID 0000.0001) >#
(PID.TID 0000.0001) > xx_gentim2d_file(4)       = 'xx_fv',
(PID.TID 0000.0001) > xx_gentim2d_weight(4)     = 'ones_64b.bin',
(PID.TID 0000.0001) >#
(PID.TID 0000.0001) > /
(PID.TID 0000.0001) 
(PID.TID 0000.0001) CTRL_READPARMS: finished reading data.ctrl
(PID.TID 0000.0001) read-write ctrl files from current run directory
(PID.TID 0000.0001) COST_READPARMS: opening data.cost
(PID.TID 0000.0001)  OPEN_COPY_DATA_FILE: opening file data.cost
(PID.TID 0000.0001) // =======================================================
(PID.TID 0000.0001) // Parameter file "data.cost"
(PID.TID 0000.0001) // =======================================================
(PID.TID 0000.0001) >#
(PID.TID 0000.0001) >#
(PID.TID 0000.0001) ># ******************
(PID.TID 0000.0001) ># cost function
(PID.TID 0000.0001) ># ******************
(PID.TID 0000.0001) > &COST_NML
(PID.TID 0000.0001) >#revert to default 1 month
(PID.TID 0000.0001) ># lastinterval=7776000.,
(PID.TID 0000.0001) > mult_test=1.,
(PID.TID 0000.0001) > /
(PID.TID 0000.0001) 
(PID.TID 0000.0001) COST_READPARMS: finished reading data.cost
(PID.TID 0000.0001) // =======================================================
(PID.TID 0000.0001) // cost configuration  >>> START <<<
(PID.TID 0000.0001) // =======================================================
(PID.TID 0000.0001) lastinterval =   /* cost interval over which to average ( s ). */
(PID.TID 0000.0001)                 2.592000000000000E+06
(PID.TID 0000.0001)     ;
(PID.TID 0000.0001) cost_mask_file = /* file name of cost mask file */
(PID.TID 0000.0001)               ''
(PID.TID 0000.0001)     ;
(PID.TID 0000.0001) // =======================================================
(PID.TID 0000.0001) // cost configuration  >>> END <<<
(PID.TID 0000.0001) // =======================================================
(PID.TID 0000.0001) 
(PID.TID 0000.0001) GRDCHK_READPARMS: opening data.grdchk
(PID.TID 0000.0001)  OPEN_COPY_DATA_FILE: opening file data.grdchk
(PID.TID 0000.0001) // =======================================================
(PID.TID 0000.0001) // Parameter file "data.grdchk"
(PID.TID 0000.0001) // =======================================================
(PID.TID 0000.0001) ># *******************
(PID.TID 0000.0001) ># ECCO gradient check
(PID.TID 0000.0001) ># *******************
(PID.TID 0000.0001) > &GRDCHK_NML
(PID.TID 0000.0001) > grdchk_eps       = 1.d-2,
(PID.TID 0000.0001) >#  iglopos         = 6,
(PID.TID 0000.0001) >#  jglopos         = 17,
(PID.TID 0000.0001) >#  kglopos         = 1,
(PID.TID 0000.0001) > nbeg             = 1,
(PID.TID 0000.0001) > nstep            = 1,
(PID.TID 0000.0001) > nend             = 4,
(PID.TID 0000.0001) > grdchkvarname    ="xx_theta",
(PID.TID 0000.0001) > /
(PID.TID 0000.0001) 
(PID.TID 0000.0001) GRDCHK_READPARMS: finished reading data.grdchk
(PID.TID 0000.0001) SET_PARMS: done
(PID.TID 0000.0001) Enter INI_VERTICAL_GRID: setInterFDr=    T ; setCenterDr=    F
(PID.TID 0000.0001) tile:   1 ; Read from file grid_cs32.face001.bin
(PID.TID 0000.0001)   => xC yC dxF dyF rA xG yG dxV dyU rAz dxC dyC rAw rAs dxG dyG AngleCS AngleSN
(PID.TID 0000.0001) tile:   2 ; Read from file grid_cs32.face001.bin
(PID.TID 0000.0001)   => xC yC dxF dyF rA xG yG dxV dyU rAz dxC dyC rAw rAs dxG dyG AngleCS AngleSN
(PID.TID 0000.0001) tile:   3 ; Read from file grid_cs32.face002.bin
(PID.TID 0000.0001)   => xC yC dxF dyF rA xG yG dxV dyU rAz dxC dyC rAw rAs dxG dyG AngleCS AngleSN
(PID.TID 0000.0001) tile:   4 ; Read from file grid_cs32.face002.bin
(PID.TID 0000.0001)   => xC yC dxF dyF rA xG yG dxV dyU rAz dxC dyC rAw rAs dxG dyG AngleCS AngleSN
(PID.TID 0000.0001) tile:   5 ; Read from file grid_cs32.face003.bin
(PID.TID 0000.0001)   => xC yC dxF dyF rA xG yG dxV dyU rAz dxC dyC rAw rAs dxG dyG AngleCS AngleSN
(PID.TID 0000.0001) tile:   6 ; Read from file grid_cs32.face003.bin
(PID.TID 0000.0001)   => xC yC dxF dyF rA xG yG dxV dyU rAz dxC dyC rAw rAs dxG dyG AngleCS AngleSN
(PID.TID 0000.0001) tile:   7 ; Read from file grid_cs32.face004.bin
(PID.TID 0000.0001)   => xC yC dxF dyF rA xG yG dxV dyU rAz dxC dyC rAw rAs dxG dyG AngleCS AngleSN
(PID.TID 0000.0001) tile:   8 ; Read from file grid_cs32.face004.bin
(PID.TID 0000.0001)   => xC yC dxF dyF rA xG yG dxV dyU rAz dxC dyC rAw rAs dxG dyG AngleCS AngleSN
(PID.TID 0000.0001) tile:   9 ; Read from file grid_cs32.face005.bin
(PID.TID 0000.0001)   => xC yC dxF dyF rA xG yG dxV dyU rAz dxC dyC rAw rAs dxG dyG AngleCS AngleSN
(PID.TID 0000.0001) tile:  10 ; Read from file grid_cs32.face005.bin
(PID.TID 0000.0001)   => xC yC dxF dyF rA xG yG dxV dyU rAz dxC dyC rAw rAs dxG dyG AngleCS AngleSN
(PID.TID 0000.0001) tile:  11 ; Read from file grid_cs32.face006.bin
(PID.TID 0000.0001)   => xC yC dxF dyF rA xG yG dxV dyU rAz dxC dyC rAw rAs dxG dyG AngleCS AngleSN
(PID.TID 0000.0001) tile:  12 ; Read from file grid_cs32.face006.bin
(PID.TID 0000.0001)   => xC yC dxF dyF rA xG yG dxV dyU rAz dxC dyC rAw rAs dxG dyG AngleCS AngleSN
(PID.TID 0000.0001) %MON XC_max                       =   1.7854351589505E+02
(PID.TID 0000.0001) %MON XC_min                       =  -1.7854351589505E+02
(PID.TID 0000.0001) %MON XC_mean                      =  -1.4199289892029E-14
(PID.TID 0000.0001) %MON XC_sd                        =   1.0355545336287E+02
(PID.TID 0000.0001) %MON XG_max                       =   1.8000000000000E+02
(PID.TID 0000.0001) %MON XG_min                       =  -1.7708797161002E+02
(PID.TID 0000.0001) %MON XG_mean                      =   1.8603515625000E+00
(PID.TID 0000.0001) %MON XG_sd                        =   1.0357130300504E+02
(PID.TID 0000.0001) %MON DXC_max                      =   3.2375185836900E+05
(PID.TID 0000.0001) %MON DXC_min                      =   1.1142031410131E+05
(PID.TID 0000.0001) %MON DXC_mean                     =   2.8605689051214E+05
(PID.TID 0000.0001) %MON DXC_sd                       =   3.4042087138252E+04
(PID.TID 0000.0001) %MON DXF_max                      =   3.2369947500827E+05
(PID.TID 0000.0001) %MON DXF_min                      =   1.2020820513318E+05
(PID.TID 0000.0001) %MON DXF_mean                     =   2.8605437324820E+05
(PID.TID 0000.0001) %MON DXF_sd                       =   3.4050524252539E+04
(PID.TID 0000.0001) %MON DXG_max                      =   3.2375195872773E+05
(PID.TID 0000.0001) %MON DXG_min                      =   1.0098378008791E+05
(PID.TID 0000.0001) %MON DXG_mean                     =   2.8603818508931E+05
(PID.TID 0000.0001) %MON DXG_sd                       =   3.4140406908005E+04
(PID.TID 0000.0001) %MON DXV_max                      =   3.2380418162750E+05
(PID.TID 0000.0001) %MON DXV_min                      =   8.0152299824136E+04
(PID.TID 0000.0001) %MON DXV_mean                     =   2.8603970633619E+05
(PID.TID 0000.0001) %MON DXV_sd                       =   3.4145142117723E+04
(PID.TID 0000.0001) %MON YC_max                       =   8.7940663871962E+01
(PID.TID 0000.0001) %MON YC_min                       =  -8.7940663871962E+01
(PID.TID 0000.0001) %MON YC_mean                      =  -2.3684757858670E-15
(PID.TID 0000.0001) %MON YC_sd                        =   3.8676242969072E+01
(PID.TID 0000.0001) %MON YG_max                       =   9.0000000000000E+01
(PID.TID 0000.0001) %MON YG_min                       =  -9.0000000000000E+01
(PID.TID 0000.0001) %MON YG_mean                      =  -4.1448326252673E-15
(PID.TID 0000.0001) %MON YG_sd                        =   3.8676895860710E+01
(PID.TID 0000.0001) %MON DYC_max                      =   3.2375185836900E+05
(PID.TID 0000.0001) %MON DYC_min                      =   1.1142031410131E+05
(PID.TID 0000.0001) %MON DYC_mean                     =   2.8605689051214E+05
(PID.TID 0000.0001) %MON DYC_sd                       =   3.4042087138252E+04
(PID.TID 0000.0001) %MON DYF_max                      =   3.2369947500827E+05
(PID.TID 0000.0001) %MON DYF_min                      =   1.2020820513318E+05
(PID.TID 0000.0001) %MON DYF_mean                     =   2.8605437324820E+05
(PID.TID 0000.0001) %MON DYF_sd                       =   3.4050524252539E+04
(PID.TID 0000.0001) %MON DYG_max                      =   3.2375195872773E+05
(PID.TID 0000.0001) %MON DYG_min                      =   1.0098378008791E+05
(PID.TID 0000.0001) %MON DYG_mean                     =   2.8603818508931E+05
(PID.TID 0000.0001) %MON DYG_sd                       =   3.4140406908005E+04
(PID.TID 0000.0001) %MON DYU_max                      =   3.2380418162750E+05
(PID.TID 0000.0001) %MON DYU_min                      =   8.0152299824136E+04
(PID.TID 0000.0001) %MON DYU_mean                     =   2.8603970633619E+05
(PID.TID 0000.0001) %MON DYU_sd                       =   3.4145142117723E+04
(PID.TID 0000.0001) %MON RA_max                       =   1.0479260248419E+11
(PID.TID 0000.0001) %MON RA_min                       =   1.4019007022556E+10
(PID.TID 0000.0001) %MON RA_mean                      =   8.2992246709265E+10
(PID.TID 0000.0001) %MON RA_sd                        =   1.7509089299457E+10
(PID.TID 0000.0001) %MON RAW_max                      =   1.0480965274559E+11
(PID.TID 0000.0001) %MON RAW_min                      =   1.2166903467143E+10
(PID.TID 0000.0001) %MON RAW_mean                     =   8.2992246709235E+10
(PID.TID 0000.0001) %MON RAW_sd                       =   1.7481917919656E+10
(PID.TID 0000.0001) %MON RAS_max                      =   1.0480965274559E+11
(PID.TID 0000.0001) %MON RAS_min                      =   1.2166903467143E+10
(PID.TID 0000.0001) %MON RAS_mean                     =   8.2992246709235E+10
(PID.TID 0000.0001) %MON RAS_sd                       =   1.7481917919656E+10
(PID.TID 0000.0001) %MON RAZ_max                      =   1.0484349334619E+11
(PID.TID 0000.0001) %MON RAZ_min                      =   8.8317900612505E+09
(PID.TID 0000.0001) %MON RAZ_mean                     =   8.2992246709235E+10
(PID.TID 0000.0001) %MON RAZ_sd                       =   1.7482297311044E+10
(PID.TID 0000.0001) %MON AngleCS_max                  =   9.9999994756719E-01
(PID.TID 0000.0001) %MON AngleCS_min                  =  -9.9968286884824E-01
(PID.TID 0000.0001) %MON AngleCS_mean                 =   3.3078922539000E-01
(PID.TID 0000.0001) %MON AngleCS_sd                   =   6.2496278958502E-01
(PID.TID 0000.0001) %MON AngleSN_max                  =   9.9968286884824E-01
(PID.TID 0000.0001) %MON AngleSN_min                  =  -9.9999994756719E-01
(PID.TID 0000.0001) %MON AngleSN_mean                 =  -3.3078922539000E-01
(PID.TID 0000.0001) %MON AngleSN_sd                   =   6.2496278958502E-01
(PID.TID 0000.0001) 
(PID.TID 0000.0001) // =======================================================
(PID.TID 0000.0001) // Calendar configuration >>> START <<<
(PID.TID 0000.0001) // =======================================================
(PID.TID 0000.0001) 
(PID.TID 0000.0001) modelstart = /* Start time of the model integration [s] */
(PID.TID 0000.0001)                 6.220800000000000E+09
(PID.TID 0000.0001)     ;
(PID.TID 0000.0001) modelend  = /* End time of the model integration [s] */
(PID.TID 0000.0001)                 6.221232000000000E+09
(PID.TID 0000.0001)     ;
(PID.TID 0000.0001) modelStep = /* Time interval for a model forward step [s] */
(PID.TID 0000.0001)                 8.640000000000000E+04
(PID.TID 0000.0001)     ;
(PID.TID 0000.0001) usingGregorianCalendar= /* Calendar Type: Gregorian Calendar */
(PID.TID 0000.0001)                   F
(PID.TID 0000.0001)     ;
(PID.TID 0000.0001) usingJulianCalendar = /* Calendar Type: Julian Calendar */
(PID.TID 0000.0001)                   F
(PID.TID 0000.0001)     ;
(PID.TID 0000.0001) usingNoLeapYearCal  = /* Calendar Type: without Leap Year */
(PID.TID 0000.0001)                   F
(PID.TID 0000.0001)     ;
(PID.TID 0000.0001) usingModelCalendar  = /* Calendar Type: Model Calendar */
(PID.TID 0000.0001)                   T
(PID.TID 0000.0001)     ;
(PID.TID 0000.0001) modelStartDate YYYYMMDD = /* Model start date YYYY-MM-DD */
(PID.TID 0000.0001)                 2010101
(PID.TID 0000.0001)     ;
(PID.TID 0000.0001)   modelStartDate HHMMSS = /* Model start date HH-MM-SS  */
(PID.TID 0000.0001)                       0
(PID.TID 0000.0001)     ;
(PID.TID 0000.0001) modelEndDate   YYYYMMDD = /* Model end date YYYY-MM-DD */
(PID.TID 0000.0001)                 2010106
(PID.TID 0000.0001)     ;
(PID.TID 0000.0001)   modelEndDate   HHMMSS = /* Model end date HH-MM-SS  */
(PID.TID 0000.0001)                       0
(PID.TID 0000.0001)     ;
(PID.TID 0000.0001) intyears = /* Number of calendar years affected by the integration */
(PID.TID 0000.0001)                       1
(PID.TID 0000.0001)     ;
(PID.TID 0000.0001) intmonths= /* Number of calendar months affected by the integration */
(PID.TID 0000.0001)                       1
(PID.TID 0000.0001)     ;
(PID.TID 0000.0001) intdays = /* Number of calendar days affected by the integration */
(PID.TID 0000.0001)                       5
(PID.TID 0000.0001)     ;
(PID.TID 0000.0001) modelIter0 = /* Base timestep number  */
(PID.TID 0000.0001)                   72000
(PID.TID 0000.0001)     ;
(PID.TID 0000.0001) modelIterEnd = /* Final timestep number  */
(PID.TID 0000.0001)                   72005
(PID.TID 0000.0001)     ;
(PID.TID 0000.0001) modelIntSteps= /* Number of model timesteps  */
(PID.TID 0000.0001)                       5
(PID.TID 0000.0001)     ;
(PID.TID 0000.0001) 
(PID.TID 0000.0001) // =======================================================
(PID.TID 0000.0001) // Calendar configuration  >>> END <<<
(PID.TID 0000.0001) // =======================================================
(PID.TID 0000.0001) 
(PID.TID 0000.0001) GAD_INIT_FIXED: GAD_OlMinSize=  2  0  2
(PID.TID 0000.0001) 
(PID.TID 0000.0001) // ===================================
(PID.TID 0000.0001) // GAD parameters :
(PID.TID 0000.0001) // ===================================
(PID.TID 0000.0001) tempAdvScheme =   /* Temp. Horiz.Advection scheme selector */
(PID.TID 0000.0001)                      30
(PID.TID 0000.0001)     ;
(PID.TID 0000.0001) tempVertAdvScheme =   /* Temp. Vert. Advection scheme selector */
(PID.TID 0000.0001)                      30
(PID.TID 0000.0001)     ;
(PID.TID 0000.0001) tempMultiDimAdvec =   /* use Muti-Dim Advec method for Temp */
(PID.TID 0000.0001)                   T
(PID.TID 0000.0001)     ;
(PID.TID 0000.0001) tempSOM_Advection = /* use 2nd Order Moment Advection for Temp */
(PID.TID 0000.0001)                   F
(PID.TID 0000.0001)     ;
(PID.TID 0000.0001) AdamsBashforthGt = /* apply Adams-Bashforth extrapolation on Gt */
(PID.TID 0000.0001)                   F
(PID.TID 0000.0001)     ;
(PID.TID 0000.0001) AdamsBashforth_T = /* apply Adams-Bashforth extrapolation on Temp */
(PID.TID 0000.0001)                   F
(PID.TID 0000.0001)     ;
(PID.TID 0000.0001) saltAdvScheme =   /* Salt. Horiz.advection scheme selector */
(PID.TID 0000.0001)                      30
(PID.TID 0000.0001)     ;
(PID.TID 0000.0001) saltVertAdvScheme =   /* Salt. Vert. Advection scheme selector */
(PID.TID 0000.0001)                      30
(PID.TID 0000.0001)     ;
(PID.TID 0000.0001) saltMultiDimAdvec =   /* use Muti-Dim Advec method for Salt */
(PID.TID 0000.0001)                   T
(PID.TID 0000.0001)     ;
(PID.TID 0000.0001) saltSOM_Advection = /* use 2nd Order Moment Advection for Salt */
(PID.TID 0000.0001)                   F
(PID.TID 0000.0001)     ;
(PID.TID 0000.0001) AdamsBashforthGs = /* apply Adams-Bashforth extrapolation on Gs */
(PID.TID 0000.0001)                   F
(PID.TID 0000.0001)     ;
(PID.TID 0000.0001) AdamsBashforth_S = /* apply Adams-Bashforth extrapolation on Salt */
(PID.TID 0000.0001)                   F
(PID.TID 0000.0001)     ;
(PID.TID 0000.0001) // ===================================
(PID.TID 0000.0001) 
(PID.TID 0000.0001) // =======================================================
(PID.TID 0000.0001) // External forcing (EXF) configuration >>> START <<<
(PID.TID 0000.0001) // =======================================================
(PID.TID 0000.0001) 
(PID.TID 0000.0001)  EXF general parameters:
(PID.TID 0000.0001) 
(PID.TID 0000.0001) exf_iprec = /* exf file precision */
(PID.TID 0000.0001)                      64
(PID.TID 0000.0001)     ;
(PID.TID 0000.0001) useExfYearlyFields = /* add extension _YEAR to input file names */
(PID.TID 0000.0001)                   F
(PID.TID 0000.0001)     ;
(PID.TID 0000.0001) twoDigitYear = /* use 2-digit year extension */
(PID.TID 0000.0001)                   F
(PID.TID 0000.0001)     ;
(PID.TID 0000.0001) useExfCheckRange = /* check for fields range */
(PID.TID 0000.0001)                   T
(PID.TID 0000.0001)     ;
(PID.TID 0000.0001) diags_opOceWeighted = /* weight flux diags by open-ocean fraction */
(PID.TID 0000.0001)                   T
(PID.TID 0000.0001)     ;
(PID.TID 0000.0001) exf_debugLev = /* select EXF-debug printing level */
(PID.TID 0000.0001)                       1
(PID.TID 0000.0001)     ;
(PID.TID 0000.0001) exf_monFreq  = /* EXF monitor frequency [ s ] */
(PID.TID 0000.0001)                 0.000000000000000E+00
(PID.TID 0000.0001)     ;
(PID.TID 0000.0001) exf_adjMonSelect = /* select group of exf AD-variables to monitor */
(PID.TID 0000.0001)                       1
(PID.TID 0000.0001)     ;
(PID.TID 0000.0001) repeatPeriod = /* period for cycling forcing dataset [ s ] */
(PID.TID 0000.0001)                 3.110400000000000E+07
(PID.TID 0000.0001)     ;
(PID.TID 0000.0001) climTempFreeze= /* Minimum climatological temperature [deg.C] */
(PID.TID 0000.0001)                -1.900000000000000E+00
(PID.TID 0000.0001)     ;
(PID.TID 0000.0001) windStressMax = /* Maximum absolute windstress [ Pa ] */
(PID.TID 0000.0001)                 2.000000000000000E+00
(PID.TID 0000.0001)     ;
(PID.TID 0000.0001) stressIsOnCgrid = /* set u,v_stress on Arakawa C-grid */
(PID.TID 0000.0001)                   T
(PID.TID 0000.0001)     ;
(PID.TID 0000.0001) rotateStressOnAgrid = /* rotate u,v_stress on Arakawa A-grid */
(PID.TID 0000.0001)                   F
(PID.TID 0000.0001)     ;
(PID.TID 0000.0001) cen2kel = /* conversion of deg. Centigrade to Kelvin [K] */
(PID.TID 0000.0001)                 2.731500000000000E+02
(PID.TID 0000.0001)     ;
(PID.TID 0000.0001) gravity_mks= /* gravitational acceleration [m/s^2] */
(PID.TID 0000.0001)                 9.810000000000000E+00
(PID.TID 0000.0001)     ;
(PID.TID 0000.0001) atmrho =  /* mean atmospheric density [kg/m^3] */
(PID.TID 0000.0001)                 1.220000000000000E+00
(PID.TID 0000.0001)     ;
(PID.TID 0000.0001) atmcp =  /* mean atmospheric specific heat [J/kg/K] */
(PID.TID 0000.0001)                 1.005000000000000E+03
(PID.TID 0000.0001)     ;
(PID.TID 0000.0001) flamb =  /* latent heat of evaporation [J/kg] */
(PID.TID 0000.0001)                 2.500000000000000E+06
(PID.TID 0000.0001)     ;
(PID.TID 0000.0001) flami =  /* latent heat of pure-ice melting [J/kg] */
(PID.TID 0000.0001)                 3.340000000000000E+05
(PID.TID 0000.0001)     ;
(PID.TID 0000.0001) cvapor_fac = /* const. for Saturation calculation [?] */
(PID.TID 0000.0001)                 6.403800000000000E+05
(PID.TID 0000.0001)     ;
(PID.TID 0000.0001) cvapor_exp = /* const. for Saturation calculation [?] */
(PID.TID 0000.0001)                 5.107400000000000E+03
(PID.TID 0000.0001)     ;
(PID.TID 0000.0001) cvapor_fac_ice= /* const. for Saturation calculation [?] */
(PID.TID 0000.0001)                 1.163780000000000E+07
(PID.TID 0000.0001)     ;
(PID.TID 0000.0001) cvapor_exp_ice= /* const. for Saturation calculation [?] */
(PID.TID 0000.0001)                 5.897800000000000E+03
(PID.TID 0000.0001)     ;
(PID.TID 0000.0001) humid_fac = /* humidity coef. in virtual temp. [(kg/kg)^-1] */
(PID.TID 0000.0001)                 6.080000000000000E-01
(PID.TID 0000.0001)     ;
(PID.TID 0000.0001) gamma_blk = /* adiabatic lapse rate [?] */
(PID.TID 0000.0001)                 1.000000000000000E-02
(PID.TID 0000.0001)     ;
(PID.TID 0000.0001) saltsat = /* reduction of Qsat over salty water [-] */
(PID.TID 0000.0001)                 9.800000000000000E-01
(PID.TID 0000.0001)     ;
(PID.TID 0000.0001) noNegativeEvap = /* prevent negative Evaporation */
(PID.TID 0000.0001)                   F
(PID.TID 0000.0001)     ;
(PID.TID 0000.0001) sstExtrapol = /* extrapolation coeff from lev. 1 & 2 to surf [-] */
(PID.TID 0000.0001)                 0.000000000000000E+00
(PID.TID 0000.0001)     ;
(PID.TID 0000.0001) cDrag_1 = /* coef used in drag calculation [m/s] */
(PID.TID 0000.0001)                 2.700000000000000E-03
(PID.TID 0000.0001)     ;
(PID.TID 0000.0001) cDrag_2 = /* coef used in drag calculation [-] */
(PID.TID 0000.0001)                 1.420000000000000E-04
(PID.TID 0000.0001)     ;
(PID.TID 0000.0001) cDrag_3 = /* coef used in drag calculation [s/m] */
(PID.TID 0000.0001)                 7.640000000000000E-05
(PID.TID 0000.0001)     ;
(PID.TID 0000.0001) cDrag_8 = /* coef used in drag calculation [(s/m)^6] */
(PID.TID 0000.0001)                 1.234567000000000E+05
(PID.TID 0000.0001)     ;
(PID.TID 0000.0001) cDragMax = /* maximum drag (Large and Yeager, 2009) [-] */
(PID.TID 0000.0001)                 1.234567000000000E+05
(PID.TID 0000.0001)     ;
(PID.TID 0000.0001) umax = /* at maximum wind (Large and Yeager, 2009) [m/s] */
(PID.TID 0000.0001)                 1.234567000000000E+05
(PID.TID 0000.0001)     ;
(PID.TID 0000.0001) cStanton_1 = /* coef used in Stanton number calculation [-] */
(PID.TID 0000.0001)                 3.270000000000000E-02
(PID.TID 0000.0001)     ;
(PID.TID 0000.0001) cStanton_2 = /* coef used in Stanton number calculation [-] */
(PID.TID 0000.0001)                 1.800000000000000E-02
(PID.TID 0000.0001)     ;
(PID.TID 0000.0001) cDalton = /* Dalton number [-] */
(PID.TID 0000.0001)                 3.460000000000000E-02
(PID.TID 0000.0001)     ;
(PID.TID 0000.0001) exf_scal_BulkCdn= /* Drag coefficient scaling factor [-] */
(PID.TID 0000.0001)                 1.000000000000000E+00
(PID.TID 0000.0001)     ;
(PID.TID 0000.0001) zolmin = /* minimum stability parameter [?] */
(PID.TID 0000.0001)                -1.000000000000000E+02
(PID.TID 0000.0001)     ;
(PID.TID 0000.0001) psim_fac = /* coef used in turbulent fluxes calculation [-] */
(PID.TID 0000.0001)                 5.000000000000000E+00
(PID.TID 0000.0001)     ;
(PID.TID 0000.0001) zref =  /* reference height [ m ] */
(PID.TID 0000.0001)                 1.000000000000000E+01
(PID.TID 0000.0001)     ;
(PID.TID 0000.0001) hu =  /* height of mean wind [ m ] */
(PID.TID 0000.0001)                 1.000000000000000E+01
(PID.TID 0000.0001)     ;
(PID.TID 0000.0001) ht =  /* height of mean temperature [ m ] */
(PID.TID 0000.0001)                 1.000000000000000E+01
(PID.TID 0000.0001)     ;
(PID.TID 0000.0001) hq =  /* height of mean spec.humidity [ m ] */
(PID.TID 0000.0001)                 1.000000000000000E+01
(PID.TID 0000.0001)     ;
(PID.TID 0000.0001) uMin = /* minimum wind speed [m/s] */
(PID.TID 0000.0001)                 5.000000000000000E-01
(PID.TID 0000.0001)     ;
(PID.TID 0000.0001) useStabilityFct_overIce= /* transfert Coeffs over sea-ice depend on stability */
(PID.TID 0000.0001)                   F
(PID.TID 0000.0001)     ;
(PID.TID 0000.0001) exf_iceCd = /* drag coefficient over sea-ice (fixed) [-] */
(PID.TID 0000.0001)                 1.630000000000000E-03
(PID.TID 0000.0001)     ;
(PID.TID 0000.0001) exf_iceCe = /* transfert coeff. over sea-ice, for Evap (fixed) [-] */
(PID.TID 0000.0001)                 1.630000000000000E-03
(PID.TID 0000.0001)     ;
(PID.TID 0000.0001) exf_iceCh = /* transfert coeff. over sea-ice, Sens.Heat.(fixed)[-] */
(PID.TID 0000.0001)                 1.630000000000000E-03
(PID.TID 0000.0001)     ;
(PID.TID 0000.0001) exf_albedo =  /* Sea-water albedo [-] */
(PID.TID 0000.0001)                 6.600000000000000E-02
(PID.TID 0000.0001)     ;
(PID.TID 0000.0001) useExfZenAlbedo = /* Sea-water albedo varies with zenith angle */
(PID.TID 0000.0001)                   F
(PID.TID 0000.0001)     ;
(PID.TID 0000.0001) select_ZenAlbedo = /* Sea-water albedo computation method */
(PID.TID 0000.0001)                       0
(PID.TID 0000.0001)     ;
(PID.TID 0000.0001) useExfZenIncoming = /* compute incoming solar radiation */
(PID.TID 0000.0001)                   F
(PID.TID 0000.0001)     ;
(PID.TID 0000.0001) ocean_emissivity = /* longwave ocean-surface emissivity [-] */
(PID.TID 0000.0001)                 1.000000000000000E+00
(PID.TID 0000.0001)     ;
(PID.TID 0000.0001) ice_emissivity = /* longwave seaice emissivity [-] */
(PID.TID 0000.0001)                 9.500000000000000E-01
(PID.TID 0000.0001)     ;
(PID.TID 0000.0001) snow_emissivity = /* longwave snow  emissivity [-] */
(PID.TID 0000.0001)                 9.500000000000000E-01
(PID.TID 0000.0001)     ;
(PID.TID 0000.0001) 
(PID.TID 0000.0001)  EXF main CPP flags:
(PID.TID 0000.0001) 
(PID.TID 0000.0001) // USE_EXF_INTERPOLATION:          NOT defined
(PID.TID 0000.0001) // ALLOW_ATM_TEMP:                     defined
(PID.TID 0000.0001) // ALLOW_ATM_WIND (useAtmWind):    NOT defined
(PID.TID 0000.0001) // ALLOW_DOWNWARD_RADIATION:           defined
(PID.TID 0000.0001) // ALLOW_BULKFORMULAE:                 defined
(PID.TID 0000.0001) 
(PID.TID 0000.0001)    Zonal wind stress forcing starts at             1296000.
(PID.TID 0000.0001)    Zonal wind stress forcing period is             2592000.
(PID.TID 0000.0001)    Zonal wind stress forcing repeat-cycle is      31104000.
(PID.TID 0000.0001)    Zonal wind stress forcing is read from file:
(PID.TID 0000.0001)    >> trenberth_taux.bin <<
(PID.TID 0000.0001) 
(PID.TID 0000.0001)    Meridional wind stress forcing starts at        1296000.
(PID.TID 0000.0001)    Meridional wind stress forcing period is        2592000.
(PID.TID 0000.0001)    Meridional wind stress forcing rep-cycle is    31104000.
(PID.TID 0000.0001)    Meridional wind stress forcing is read from file:
(PID.TID 0000.0001)    >> trenberth_tauy.bin <<
(PID.TID 0000.0001) 
(PID.TID 0000.0001)    Surface wind speed starts at                    1296000.
(PID.TID 0000.0001)    Surface wind speed period is                    2592000.
(PID.TID 0000.0001)    Surface wind speed repeat-cycle is             31104000.
(PID.TID 0000.0001)    Surface wind speed is read from file:
(PID.TID 0000.0001)    >> core_wndSpd_cs32.bin <<
(PID.TID 0000.0001) 
(PID.TID 0000.0001)    Atmospheric temperature starts at               1296000.
(PID.TID 0000.0001)    Atmospheric temperature period is               2592000.
(PID.TID 0000.0001)    Atmospheric temperature repeat-cycle is        31104000.
(PID.TID 0000.0001)    Atmospheric temperature is read from file:
(PID.TID 0000.0001)    >> core_t_Air_cs32.bin <<
(PID.TID 0000.0001) 
(PID.TID 0000.0001)    Atmospheric specific humidity starts at         1296000.
(PID.TID 0000.0001)    Atmospheric specific humidity period is         2592000.
(PID.TID 0000.0001)    Atmospheric specific humidity rep-cycle is     31104000.
(PID.TID 0000.0001)    Atmospheric specific humidity is read from file:
(PID.TID 0000.0001)    >> core_q_air_cs32.bin <<
(PID.TID 0000.0001) 
(PID.TID 0000.0001) // ALLOW_READ_TURBFLUXES:          NOT defined
(PID.TID 0000.0001) // EXF_READ_EVAP:                  NOT defined
(PID.TID 0000.0001) 
(PID.TID 0000.0001)    Precipitation data starts at                    1296000.
(PID.TID 0000.0001)    Precipitation data period is                    2592000.
(PID.TID 0000.0001)    Precipitation data repeat-cycle is             31104000.
(PID.TID 0000.0001)    Precipitation data is read from file:
(PID.TID 0000.0001)    >> core_prec_1_cs32.bin <<
(PID.TID 0000.0001) 
(PID.TID 0000.0001)    Snow Precipitation data starts at               1296000.
(PID.TID 0000.0001)    Snow Precipitation data period is               2592000.
(PID.TID 0000.0001)    Snow Precipitation data repeat-cycle is        31104000.
(PID.TID 0000.0001)    Snow Precipitation data is read from file:
(PID.TID 0000.0001)    >> core_snwP_1_cs32.bin <<
(PID.TID 0000.0001) 
(PID.TID 0000.0001) // ALLOW_RUNOFF:                       defined
(PID.TID 0000.0001)    Runoff data starts at                           1296000.
(PID.TID 0000.0001)    Runoff data period is                           2592000.
(PID.TID 0000.0001)    Runoff data repeat-cycle is                    31104000.
(PID.TID 0000.0001)    Runoff data is read from file:
(PID.TID 0000.0001)    >> core_rnof_1_cs32.bin <<
(PID.TID 0000.0001) 
(PID.TID 0000.0001) // ALLOW_RUNOFTEMP:                NOT defined
(PID.TID 0000.0001) // ALLOW_SALTFLX:                  NOT defined
(PID.TID 0000.0001) 
(PID.TID 0000.0001)    Downward shortwave flux starts at               1296000.
(PID.TID 0000.0001)    Downward shortwave flux period is               2592000.
(PID.TID 0000.0001)    Downward shortwave flux repeat-cycle is        31104000.
(PID.TID 0000.0001)    Downward shortwave flux is read from file:
(PID.TID 0000.0001)    >> core_dwnSw_cs32.bin <<
(PID.TID 0000.0001) 
(PID.TID 0000.0001)    Downward longwave flux starts at                1296000.
(PID.TID 0000.0001)    Downward longwave flux period is                2592000.
(PID.TID 0000.0001)    Downward longwave flux repeat-cycle is         31104000.
(PID.TID 0000.0001)    Downward longwave flux is read from file:
(PID.TID 0000.0001)    >> core_dwnLw_cs32.bin <<
(PID.TID 0000.0001) 
(PID.TID 0000.0001) // =======================================================
(PID.TID 0000.0001) // External forcing (EXF) climatology configuration :
(PID.TID 0000.0001) // =======================================================
(PID.TID 0000.0001) 
(PID.TID 0000.0001) // ALLOW_CLIMSST_RELAXATION:           defined
(PID.TID 0000.0001)    Climatological SST starts at                    1296000.
(PID.TID 0000.0001)    Climatological SST period is                    2592000.
(PID.TID 0000.0001)    Climatological SST repeat-cycle is             31104000.
(PID.TID 0000.0001)    Climatological SST is read from file:
(PID.TID 0000.0001)    >> lev_surfT_cs_12m.bin <<
(PID.TID 0000.0001) 
(PID.TID 0000.0001) // ALLOW_CLIMSSS_RELAXATION:           defined
(PID.TID 0000.0001)    Climatological SSS starts at                    1296000.
(PID.TID 0000.0001)    Climatological SSS period is                    2592000.
(PID.TID 0000.0001)    Climatological SSS repeat-cycle is             31104000.
(PID.TID 0000.0001)    Climatological SSS is read from file:
(PID.TID 0000.0001)    >> lev_surfS_cs_12m.bin <<
(PID.TID 0000.0001) 
(PID.TID 0000.0001) // =======================================================
(PID.TID 0000.0001) // External forcing (EXF) configuration  >>> END <<<
(PID.TID 0000.0001) // =======================================================
(PID.TID 0000.0001) 
(PID.TID 0000.0001) CTRL_INIT_FIXED: ivar=   8 = number of CTRL variables defined
(PID.TID 0000.0001) 
(PID.TID 0000.0001) ctrl-wet 1:    nvarlength =       239366
(PID.TID 0000.0001) ctrl-wet 2: surface wet C =          389
(PID.TID 0000.0001) ctrl-wet 3: surface wet W =          367
(PID.TID 0000.0001) ctrl-wet 4: surface wet S =          384
(PID.TID 0000.0001) ctrl-wet 5: 3D wet points =         5204
(PID.TID 0000.0001) ctrl-wet 6: no recs for ivar =     1           1
(PID.TID 0000.0001) ctrl-wet 6: no recs for ivar =     2           1
(PID.TID 0000.0001) ctrl-wet 6: no recs for ivar =     3           1
(PID.TID 0000.0001) ctrl-wet 6: no recs for ivar =     4           1
(PID.TID 0000.0001) ctrl-wet 6: no recs for ivar =     5           1
(PID.TID 0000.0001) ctrl-wet 6: no recs for ivar =     6           1
(PID.TID 0000.0001) ctrl-wet 6: no recs for ivar =     7           1
(PID.TID 0000.0001) ctrl-wet 6: no recs for ivar =     8           1
(PID.TID 0000.0001) ctrl-wet 6: no recs for ivar =     9           0
(PID.TID 0000.0001) ctrl-wet -------------------------------------------------
(PID.TID 0000.0001) ctrl-wet 13: global nvarlength for Nr =   15      239366
(PID.TID 0000.0001) ctrl-wet -------------------------------------------------
(PID.TID 0000.0001) ctrl-wet 14: global nWet C/S/W k=    1        4420        4232        4206
(PID.TID 0000.0001) ctrl-wet 14: global nWet C/S/W k=    2        4299        4112        4096
(PID.TID 0000.0001) ctrl-wet 14: global nWet C/S/W k=    3        4222        4038        4023
(PID.TID 0000.0001) ctrl-wet 14: global nWet C/S/W k=    4        4140        3960        3939
(PID.TID 0000.0001) ctrl-wet 14: global nWet C/S/W k=    5        4099        3919        3893
(PID.TID 0000.0001) ctrl-wet 14: global nWet C/S/W k=    6        4038        3856        3839
(PID.TID 0000.0001) ctrl-wet 14: global nWet C/S/W k=    7        3995        3814        3795
(PID.TID 0000.0001) ctrl-wet 14: global nWet C/S/W k=    8        3944        3756        3737
(PID.TID 0000.0001) ctrl-wet 14: global nWet C/S/W k=    9        3887        3699        3673
(PID.TID 0000.0001) ctrl-wet 14: global nWet C/S/W k=   10        3799        3605        3585
(PID.TID 0000.0001) ctrl-wet 14: global nWet C/S/W k=   11        3703        3502        3461
(PID.TID 0000.0001) ctrl-wet 14: global nWet C/S/W k=   12        3554        3338        3303
(PID.TID 0000.0001) ctrl-wet 14: global nWet C/S/W k=   13        3202        2910        2911
(PID.TID 0000.0001) ctrl-wet 14: global nWet C/S/W k=   14        2599        2296        2276
(PID.TID 0000.0001) ctrl-wet 14: global nWet C/S/W k=   15        1621        1368        1334
(PID.TID 0000.0001) ctrl-wet -------------------------------------------------
(PID.TID 0000.0001) ctrl_init_wet: no. of control variables:            8
(PID.TID 0000.0001) ctrl_init_wet: control vector length:          239366
(PID.TID 0000.0001) 
(PID.TID 0000.0001) // =======================================================
(PID.TID 0000.0001) // control vector configuration  >>> START <<<
(PID.TID 0000.0001) // =======================================================
(PID.TID 0000.0001) 
(PID.TID 0000.0001)  Total number of ocean points per tile:
(PID.TID 0000.0001)  --------------------------------------
(PID.TID 0000.0001)  sNx*sNy*Nr =     7680
(PID.TID 0000.0001) 
(PID.TID 0000.0001)  Number of ocean points per tile:
(PID.TID 0000.0001)  --------------------------------
(PID.TID 0000.0001)  bi,bj,#(c/s/w): 001 001    5204    5084    4791
(PID.TID 0000.0001)  bi,bj,#(c/s/w): 002 001    3115    2837    2945
(PID.TID 0000.0001)  bi,bj,#(c/s/w): 003 001    5620    5386    5384
(PID.TID 0000.0001)  bi,bj,#(c/s/w): 004 001    2470    2283    1983
(PID.TID 0000.0001)  bi,bj,#(c/s/w): 005 001    1306     952     953
(PID.TID 0000.0001)  bi,bj,#(c/s/w): 006 001    3476    3122    3082
(PID.TID 0000.0001)  bi,bj,#(c/s/w): 007 001    5619    5222    5403
(PID.TID 0000.0001)  bi,bj,#(c/s/w): 008 001    7482    7397    7429
(PID.TID 0000.0001)  bi,bj,#(c/s/w): 009 001    5900    5825    5686
(PID.TID 0000.0001)  bi,bj,#(c/s/w): 010 001    3678    3307    3317
(PID.TID 0000.0001)  bi,bj,#(c/s/w): 011 001    6008    5782    5796
(PID.TID 0000.0001)  bi,bj,#(c/s/w): 012 001    5644    5208    5302
(PID.TID 0000.0001) 
(PID.TID 0000.0001)  -> 3d control, genarr3d no.  1 is in use
(PID.TID 0000.0001)       file       = xx_theta
(PID.TID 0000.0001)       ncvartype  = Arr3D
(PID.TID 0000.0001)       index      =     1  (use this for pkg/grdchk)
(PID.TID 0000.0001)       ncvarindex =     1
(PID.TID 0000.0001)       weight     = ones_64b.bin
(PID.TID 0000.0001) 
(PID.TID 0000.0001)  -> 3d control, genarr3d no.  2 is in use
(PID.TID 0000.0001)       file       = xx_salt
(PID.TID 0000.0001)       ncvartype  = Arr3D
(PID.TID 0000.0001)       index      =     2  (use this for pkg/grdchk)
(PID.TID 0000.0001)       ncvarindex =     2
(PID.TID 0000.0001)       weight     = ones_64b.bin
(PID.TID 0000.0001) 
(PID.TID 0000.0001)  -> 3d control, genarr3d no.  3 is in use
(PID.TID 0000.0001)       file       = xx_ptr
(PID.TID 0000.0001)       ncvartype  = Arr3D
(PID.TID 0000.0001)       index      =     3  (use this for pkg/grdchk)
(PID.TID 0000.0001)       ncvarindex =     3
(PID.TID 0000.0001)       weight     = ones_64b.bin
(PID.TID 0000.0001) 
(PID.TID 0000.0001)  -> 3d control, genarr3d no.  4 is in use
(PID.TID 0000.0001)       file       = xx_diffkr
(PID.TID 0000.0001)       ncvartype  = Arr3D
(PID.TID 0000.0001)       index      =     4  (use this for pkg/grdchk)
(PID.TID 0000.0001)       ncvarindex =     4
(PID.TID 0000.0001)       weight     = ones_64b.bin
(PID.TID 0000.0001) 
(PID.TID 0000.0001)  -> time variable 2d control, gentim2d no.  1 is in use
(PID.TID 0000.0001)       file       = xx_qnet
(PID.TID 0000.0001)       ncvartype  = Tim2D
(PID.TID 0000.0001)       index      =     5  (use this for pkg/grdchk)
(PID.TID 0000.0001)       ncvarindex =     1
(PID.TID 0000.0001)       weight     = ones_64b.bin
(PID.TID 0000.0001)       period     =  00000000 000000
(PID.TID 0000.0001) 
(PID.TID 0000.0001)  -> time variable 2d control, gentim2d no.  2 is in use
(PID.TID 0000.0001)       file       = xx_empmr
(PID.TID 0000.0001)       ncvartype  = Tim2D
(PID.TID 0000.0001)       index      =     6  (use this for pkg/grdchk)
(PID.TID 0000.0001)       ncvarindex =     2
(PID.TID 0000.0001)       weight     = ones_64b.bin
(PID.TID 0000.0001)       period     =  00000000 000000
(PID.TID 0000.0001) 
(PID.TID 0000.0001)  -> time variable 2d control, gentim2d no.  3 is in use
(PID.TID 0000.0001)       file       = xx_fu
(PID.TID 0000.0001)       ncvartype  = Tim2D
(PID.TID 0000.0001)       index      =     7  (use this for pkg/grdchk)
(PID.TID 0000.0001)       ncvarindex =     3
(PID.TID 0000.0001)       weight     = ones_64b.bin
(PID.TID 0000.0001)       period     =  00000000 000000
(PID.TID 0000.0001) 
(PID.TID 0000.0001)  -> time variable 2d control, gentim2d no.  4 is in use
(PID.TID 0000.0001)       file       = xx_fv
(PID.TID 0000.0001)       ncvartype  = Tim2D
(PID.TID 0000.0001)       index      =     8  (use this for pkg/grdchk)
(PID.TID 0000.0001)       ncvarindex =     4
(PID.TID 0000.0001)       weight     = ones_64b.bin
(PID.TID 0000.0001)       period     =  00000000 000000
(PID.TID 0000.0001) 
(PID.TID 0000.0001) // =======================================================
(PID.TID 0000.0001) // control vector configuration  >>> END <<<
(PID.TID 0000.0001) // =======================================================
(PID.TID 0000.0001) 
(PID.TID 0000.0001) INI_GLOBAL_DOMAIN: Found  19 CS-corner Pts in the domain
(PID.TID 0000.0001) %MON fCori_max                    =   1.4574827780704E-04
(PID.TID 0000.0001) %MON fCori_min                    =  -1.4574827780704E-04
(PID.TID 0000.0001) %MON fCori_mean                   =   3.3881317890172E-21
(PID.TID 0000.0001) %MON fCori_sd                     =   8.4202189509968E-05
(PID.TID 0000.0001) %MON fCoriG_max                   =   1.4584247033981E-04
(PID.TID 0000.0001) %MON fCoriG_min                   =  -1.4584247033981E-04
(PID.TID 0000.0001) %MON fCoriG_mean                  =  -1.6940658945086E-20
(PID.TID 0000.0001) %MON fCoriG_sd                    =   8.4202189509968E-05
(PID.TID 0000.0001) %MON fCoriCos_max                 =   1.4580166994612E-04
(PID.TID 0000.0001) %MON fCoriCos_min                 =   5.2407700865903E-06
(PID.TID 0000.0001) %MON fCoriCos_mean                =   1.1514045869113E-04
(PID.TID 0000.0001) %MON fCoriCos_sd                  =   3.0375849106513E-05
(PID.TID 0000.0001) INI_CG2D: CG2D normalisation factor =  1.9156564154949553E-04
(PID.TID 0000.0001) 
(PID.TID 0000.0001) // =======================================================
(PID.TID 0000.0001) // Model configuration
(PID.TID 0000.0001) // =======================================================
(PID.TID 0000.0001) //
(PID.TID 0000.0001) // "Physical" paramters ( PARM01 in namelist )
(PID.TID 0000.0001) //
(PID.TID 0000.0001) buoyancyRelation = /* Type of relation to get Buoyancy */
(PID.TID 0000.0001)               'OCEANIC'
(PID.TID 0000.0001)     ;
(PID.TID 0000.0001) fluidIsAir   =  /* fluid major constituent is Air */
(PID.TID 0000.0001)                   F
(PID.TID 0000.0001)     ;
(PID.TID 0000.0001) fluidIsWater =  /* fluid major constituent is Water */
(PID.TID 0000.0001)                   T
(PID.TID 0000.0001)     ;
(PID.TID 0000.0001) usingPCoords =  /* use p (or p*) vertical coordinate */
(PID.TID 0000.0001)                   F
(PID.TID 0000.0001)     ;
(PID.TID 0000.0001) usingZCoords =  /* use z (or z*) vertical coordinate */
(PID.TID 0000.0001)                   T
(PID.TID 0000.0001)     ;
(PID.TID 0000.0001) tRef =   /* Reference temperature profile ( oC or K ) */
(PID.TID 0000.0001)    15 @  2.000000000000000E+01              /* K =  1: 15 */
(PID.TID 0000.0001)     ;
(PID.TID 0000.0001) sRef =   /* Reference salinity profile ( g/kg ) */
(PID.TID 0000.0001)    15 @  3.500000000000000E+01              /* K =  1: 15 */
(PID.TID 0000.0001)     ;
(PID.TID 0000.0001) rhoRef =   /* Density vertical profile from (Ref,sRef)( kg/m^3 ) */
(PID.TID 0000.0001)                 1.024872626184147E+03,      /* K =  1 */
(PID.TID 0000.0001)                 1.025135462285008E+03,      /* K =  2 */
(PID.TID 0000.0001)                 1.025507198938228E+03,      /* K =  3 */
(PID.TID 0000.0001)                 1.026030780760464E+03,      /* K =  4 */
(PID.TID 0000.0001)                 1.026748377776259E+03,      /* K =  5 */
(PID.TID 0000.0001)                 1.027679406285166E+03,      /* K =  6 */
(PID.TID 0000.0001)                 1.028820735595355E+03,      /* K =  7 */
(PID.TID 0000.0001)                 1.030168558073105E+03,      /* K =  8 */
(PID.TID 0000.0001)                 1.031718419899614E+03,      /* K =  9 */
(PID.TID 0000.0001)                 1.033465256541184E+03,      /* K = 10 */
(PID.TID 0000.0001)                 1.035403432414885E+03,      /* K = 11 */
(PID.TID 0000.0001)                 1.037526784183520E+03,      /* K = 12 */
(PID.TID 0000.0001)                 1.039828667078104E+03,      /* K = 13 */
(PID.TID 0000.0001)                 1.042302003623418E+03,      /* K = 14 */
(PID.TID 0000.0001)                 1.044939334132512E+03       /* K = 15 */
(PID.TID 0000.0001)     ;
(PID.TID 0000.0001) dBdrRef = /* Vertical grad. of reference buoyancy [(m/s/r)^2] */
(PID.TID 0000.0001)    15 @  0.000000000000000E+00              /* K =  1: 15 */
(PID.TID 0000.0001)     ;
(PID.TID 0000.0001) useStrainTensionVisc= /* Use StrainTension Form of Viscous Operator */
(PID.TID 0000.0001)                   F
(PID.TID 0000.0001)     ;
(PID.TID 0000.0001) useVariableVisc = /* Use variable horizontal viscosity */
(PID.TID 0000.0001)                   F
(PID.TID 0000.0001)     ;
(PID.TID 0000.0001) useHarmonicVisc = /* Use harmonic horizontal viscosity */
(PID.TID 0000.0001)                   T
(PID.TID 0000.0001)     ;
(PID.TID 0000.0001) useBiharmonicVisc= /* Use biharmonic horiz.  viscosity */
(PID.TID 0000.0001)                   F
(PID.TID 0000.0001)     ;
(PID.TID 0000.0001) useSmag3D = /* Use isotropic 3-D Smagorinsky viscosity */
(PID.TID 0000.0001)                   F
(PID.TID 0000.0001)     ;
(PID.TID 0000.0001) viscAh  =   /* Lateral harmonic viscosity ( m^2/s ) */
(PID.TID 0000.0001)                 3.000000000000000E+05
(PID.TID 0000.0001)     ;
(PID.TID 0000.0001) viscA4  =   /* Lateral biharmonic viscosity ( m^4/s ) */
(PID.TID 0000.0001)                 0.000000000000000E+00
(PID.TID 0000.0001)     ;
(PID.TID 0000.0001) no_slip_sides =  /* Viscous BCs: No-slip sides */
(PID.TID 0000.0001)                   T
(PID.TID 0000.0001)     ;
(PID.TID 0000.0001) sideDragFactor = /* side-drag scaling factor (non-dim) */
(PID.TID 0000.0001)                 2.000000000000000E+00
(PID.TID 0000.0001)     ;
(PID.TID 0000.0001) viscArNr = /* vertical profile of vertical viscosity ( m^2/s )*/
(PID.TID 0000.0001)    15 @  1.000000000000000E-03              /* K =  1: 15 */
(PID.TID 0000.0001)     ;
(PID.TID 0000.0001) no_slip_bottom =  /* Viscous BCs: No-slip bottom */
(PID.TID 0000.0001)                   T
(PID.TID 0000.0001)     ;
(PID.TID 0000.0001) bottomVisc_pCell = /* Partial-cell in bottom Visc. BC */
(PID.TID 0000.0001)                   F
(PID.TID 0000.0001)     ;
(PID.TID 0000.0001) bottomDragLinear = /* linear bottom-drag coefficient ( m/s ) */
(PID.TID 0000.0001)                 0.000000000000000E+00
(PID.TID 0000.0001)     ;
(PID.TID 0000.0001) bottomDragQuadratic = /* quadratic bottom-drag coefficient (-) */
(PID.TID 0000.0001)                 0.000000000000000E+00
(PID.TID 0000.0001)     ;
(PID.TID 0000.0001) selectBotDragQuadr = /* select quadratic bottom drag options */
(PID.TID 0000.0001)                      -1
(PID.TID 0000.0001)     ;
(PID.TID 0000.0001) diffKhT =   /* Laplacian diffusion of heat laterally ( m^2/s ) */
(PID.TID 0000.0001)                 0.000000000000000E+00
(PID.TID 0000.0001)     ;
(PID.TID 0000.0001) diffK4T =   /* Biharmonic diffusion of heat laterally ( m^4/s ) */
(PID.TID 0000.0001)                 0.000000000000000E+00
(PID.TID 0000.0001)     ;
(PID.TID 0000.0001) diffKhS =   /* Laplacian diffusion of salt laterally ( m^2/s ) */
(PID.TID 0000.0001)                 0.000000000000000E+00
(PID.TID 0000.0001)     ;
(PID.TID 0000.0001) diffK4S =   /* Biharmonic diffusion of salt laterally ( m^4/s ) */
(PID.TID 0000.0001)                 0.000000000000000E+00
(PID.TID 0000.0001)     ;
(PID.TID 0000.0001) diffKrNrT = /* vertical profile of vertical diffusion of Temp ( m^2/s )*/
(PID.TID 0000.0001)    15 @  0.000000000000000E+00              /* K =  1: 15 */
(PID.TID 0000.0001)     ;
(PID.TID 0000.0001) diffKrNrS = /* vertical profile of vertical diffusion of Salt ( m^2/s )*/
(PID.TID 0000.0001)    15 @  3.000000000000000E-05              /* K =  1: 15 */
(PID.TID 0000.0001)     ;
(PID.TID 0000.0001) diffKrBL79surf = /* Surface diffusion for Bryan and Lewis 79 ( m^2/s ) */
[...]
(PID.TID 0000.0001)     Wall clock time:   34.989619016647339
(PID.TID 0000.0001)          No. starts:           1
(PID.TID 0000.0001)           No. stops:           1
(PID.TID 0000.0001)   Seconds in section "FORWARD_STEP        [MAIN_DO_LOOP]":
(PID.TID 0000.0001)           User time:   44.440621793270111
(PID.TID 0000.0001)         System time:   2.7225986123085022E-002
(PID.TID 0000.0001)     Wall clock time:   44.499865293502808
(PID.TID 0000.0001)          No. starts:          50
(PID.TID 0000.0001)           No. stops:          50
(PID.TID 0000.0001)   Seconds in section "UPDATE_R_STAR       [FORWARD_STEP]":
(PID.TID 0000.0001)           User time:   1.1866087913513184
(PID.TID 0000.0001)         System time:   3.9700120687484741E-003
(PID.TID 0000.0001)     Wall clock time:   1.1907026767730713
(PID.TID 0000.0001)          No. starts:         100
(PID.TID 0000.0001)           No. stops:         100
(PID.TID 0000.0001)   Seconds in section "LOAD_FIELDS_DRIVER  [FORWARD_STEP]":
(PID.TID 0000.0001)           User time:  0.66750830411911011
(PID.TID 0000.0001)         System time:   2.1699070930480957E-004
(PID.TID 0000.0001)     Wall clock time:  0.66809415817260742
(PID.TID 0000.0001)          No. starts:          50
(PID.TID 0000.0001)           No. stops:          50
(PID.TID 0000.0001)   Seconds in section "EXF_GETFORCING     [LOAD_FLDS_DRIVER]":
(PID.TID 0000.0001)           User time:  0.56950962543487549
(PID.TID 0000.0001)         System time:   1.0102987289428711E-004
(PID.TID 0000.0001)     Wall clock time:  0.57001566886901855
(PID.TID 0000.0001)          No. starts:          50
(PID.TID 0000.0001)           No. stops:          50
(PID.TID 0000.0001)   Seconds in section "EXTERNAL_FLDS_LOAD [LOAD_FLDS_DRIVER]":
(PID.TID 0000.0001)           User time:   2.5963783264160156E-004
(PID.TID 0000.0001)         System time:   9.8347663879394531E-007
(PID.TID 0000.0001)     Wall clock time:   2.4867057800292969E-004
(PID.TID 0000.0001)          No. starts:          50
(PID.TID 0000.0001)           No. stops:          50
(PID.TID 0000.0001)   Seconds in section "CTRL_MAP_FORCING  [FORWARD_STEP]":
(PID.TID 0000.0001)           User time:  0.25619232654571533
(PID.TID 0000.0001)         System time:   3.4958124160766602E-005
(PID.TID 0000.0001)     Wall clock time:  0.25628066062927246
(PID.TID 0000.0001)          No. starts:          50
(PID.TID 0000.0001)           No. stops:          50
(PID.TID 0000.0001)   Seconds in section "DO_ATMOSPHERIC_PHYS [FORWARD_STEP]":
(PID.TID 0000.0001)           User time:   3.6081194877624512E-002
(PID.TID 0000.0001)         System time:   4.7996640205383301E-005
(PID.TID 0000.0001)     Wall clock time:   3.6150693893432617E-002
(PID.TID 0000.0001)          No. starts:          50
(PID.TID 0000.0001)           No. stops:          50
(PID.TID 0000.0001)   Seconds in section "DO_OCEANIC_PHYS     [FORWARD_STEP]":
(PID.TID 0000.0001)           User time:   6.0155868530273438
(PID.TID 0000.0001)         System time:   1.3008713722229004E-005
(PID.TID 0000.0001)     Wall clock time:   6.0161569118499756
(PID.TID 0000.0001)          No. starts:          50
(PID.TID 0000.0001)           No. stops:          50
(PID.TID 0000.0001)   Seconds in section "THSICE_MAIN     [DO_OCEANIC_PHYS]":
(PID.TID 0000.0001)           User time:  0.29870301485061646
(PID.TID 0000.0001)         System time:   1.9967555999755859E-006
(PID.TID 0000.0001)     Wall clock time:  0.29924058914184570
(PID.TID 0000.0001)          No. starts:          50
(PID.TID 0000.0001)           No. stops:          50
(PID.TID 0000.0001)   Seconds in section "DYNAMICS            [FORWARD_STEP]":
(PID.TID 0000.0001)           User time:   12.647736787796021
(PID.TID 0000.0001)         System time:   8.0019235610961914E-006
(PID.TID 0000.0001)     Wall clock time:   12.647753000259399
(PID.TID 0000.0001)          No. starts:          50
(PID.TID 0000.0001)           No. stops:          50
(PID.TID 0000.0001)   Seconds in section "SOLVE_FOR_PRESSURE  [FORWARD_STEP]":
(PID.TID 0000.0001)           User time:   4.9176585674285889
(PID.TID 0000.0001)         System time:   1.5050172805786133E-005
(PID.TID 0000.0001)     Wall clock time:   4.9177000522613525
(PID.TID 0000.0001)          No. starts:          50
(PID.TID 0000.0001)           No. stops:          50
(PID.TID 0000.0001)   Seconds in section "MOM_CORRECTION_STEP [FORWARD_STEP]":
(PID.TID 0000.0001)           User time:  0.39165687561035156
(PID.TID 0000.0001)         System time:   3.9839744567871094E-003
(PID.TID 0000.0001)     Wall clock time:  0.39572644233703613
(PID.TID 0000.0001)          No. starts:          50
(PID.TID 0000.0001)           No. stops:          50
(PID.TID 0000.0001)   Seconds in section "INTEGR_CONTINUITY   [FORWARD_STEP]":
(PID.TID 0000.0001)           User time:  0.65778970718383789
(PID.TID 0000.0001)         System time:   5.0067901611328125E-006
(PID.TID 0000.0001)     Wall clock time:  0.65787744522094727
(PID.TID 0000.0001)          No. starts:          50
(PID.TID 0000.0001)           No. stops:          50
(PID.TID 0000.0001)   Seconds in section "CALC_R_STAR         [FORWARD_STEP]":
(PID.TID 0000.0001)           User time:  0.13014483451843262
(PID.TID 0000.0001)         System time:   1.9967555999755859E-006
(PID.TID 0000.0001)     Wall clock time:  0.13018870353698730
(PID.TID 0000.0001)          No. starts:          50
(PID.TID 0000.0001)           No. stops:          50
(PID.TID 0000.0001)   Seconds in section "BLOCKING_EXCHANGES  [FORWARD_STEP]":
(PID.TID 0000.0001)           User time:  0.61421382427215576
(PID.TID 0000.0001)         System time:   1.8030405044555664E-005
(PID.TID 0000.0001)     Wall clock time:  0.61439847946166992
(PID.TID 0000.0001)          No. starts:         100
(PID.TID 0000.0001)           No. stops:         100
(PID.TID 0000.0001)   Seconds in section "THERMODYNAMICS      [FORWARD_STEP]":
(PID.TID 0000.0001)           User time:   16.013823628425598
(PID.TID 0000.0001)         System time:   0.0000000000000000
(PID.TID 0000.0001)     Wall clock time:   16.013719797134399
(PID.TID 0000.0001)          No. starts:          50
(PID.TID 0000.0001)           No. stops:          50
(PID.TID 0000.0001)   Seconds in section "TRC_CORRECTION_STEP [FORWARD_STEP]":
(PID.TID 0000.0001)           User time:   2.5677680969238281E-004
(PID.TID 0000.0001)         System time:   0.0000000000000000
(PID.TID 0000.0001)     Wall clock time:   2.6130676269531250E-004
(PID.TID 0000.0001)          No. starts:          50
(PID.TID 0000.0001)           No. stops:          50
(PID.TID 0000.0001)   Seconds in section "MONITOR             [FORWARD_STEP]":
(PID.TID 0000.0001)           User time:  0.31570303440093994
(PID.TID 0000.0001)         System time:   0.0000000000000000
(PID.TID 0000.0001)     Wall clock time:  0.31570649147033691
(PID.TID 0000.0001)          No. starts:          50
(PID.TID 0000.0001)           No. stops:          50
(PID.TID 0000.0001)   Seconds in section "COST_TILE           [FORWARD_STEP]":
(PID.TID 0000.0001)           User time:  0.53019642829895020
(PID.TID 0000.0001)         System time:   9.0003013610839844E-006
(PID.TID 0000.0001)     Wall clock time:  0.53028106689453125
(PID.TID 0000.0001)          No. starts:          50
(PID.TID 0000.0001)           No. stops:          50
(PID.TID 0000.0001)   Seconds in section "DO_THE_MODEL_IO     [FORWARD_STEP]":
(PID.TID 0000.0001)           User time:   2.9970765113830566E-002
(PID.TID 0000.0001)         System time:   1.4793008565902710E-002
(PID.TID 0000.0001)     Wall clock time:   7.4287652969360352E-002
(PID.TID 0000.0001)          No. starts:          50
(PID.TID 0000.0001)           No. stops:          50
(PID.TID 0000.0001)   Seconds in section "DO_WRITE_PICKUP     [FORWARD_STEP]":
(PID.TID 0000.0001)           User time:   2.1174907684326172E-002
(PID.TID 0000.0001)         System time:   4.0190070867538452E-003
(PID.TID 0000.0001)     Wall clock time:   2.7347087860107422E-002
(PID.TID 0000.0001)          No. starts:          50
(PID.TID 0000.0001)           No. stops:          50
(PID.TID 0000.0001)   Seconds in section "I/O (WRITE)        [ADJOINT LOOP]":
(PID.TID 0000.0001)           User time:   6.5158843994140625E-002
(PID.TID 0000.0001)         System time:   1.6005009412765503E-002
(PID.TID 0000.0001)     Wall clock time:  0.22003197669982910
(PID.TID 0000.0001)          No. starts:           6
(PID.TID 0000.0001)           No. stops:           6
(PID.TID 0000.0001)   Seconds in section "CTRL_PACK           [THE_MODEL_MAIN]":
(PID.TID 0000.0001)           User time:   4.5948028564453125E-002
(PID.TID 0000.0001)         System time:   7.9739987850189209E-003
(PID.TID 0000.0001)     Wall clock time:   5.4217815399169922E-002
(PID.TID 0000.0001)          No. starts:           1
(PID.TID 0000.0001)           No. stops:           1
(PID.TID 0000.0001)   Seconds in section "CTRL_PACK     [THE_MODEL_MAIN]":
(PID.TID 0000.0001)           User time:   4.8286437988281250E-002
(PID.TID 0000.0001)         System time:   4.0020048618316650E-003
(PID.TID 0000.0001)     Wall clock time:   5.2567005157470703E-002
(PID.TID 0000.0001)          No. starts:           1
(PID.TID 0000.0001)           No. stops:           1
(PID.TID 0000.0001)   Seconds in section "GRDCHK_MAIN         [THE_MODEL_MAIN]":
(PID.TID 0000.0001)           User time:   36.844993591308594
(PID.TID 0000.0001)         System time:   8.8100999593734741E-002
(PID.TID 0000.0001)     Wall clock time:   36.938619136810303
(PID.TID 0000.0001)          No. starts:           1
(PID.TID 0000.0001)           No. stops:           1
(PID.TID 0000.0001)   Seconds in section "INITIALISE_VARIA    [THE_MAIN_LOOP]":
(PID.TID 0000.0001)           User time:   1.4495353698730469
(PID.TID 0000.0001)         System time:   6.7886024713516235E-002
(PID.TID 0000.0001)     Wall clock time:   1.5176393985748291
(PID.TID 0000.0001)          No. starts:           8
(PID.TID 0000.0001)           No. stops:           8
(PID.TID 0000.0001)   Seconds in section "MAIN LOOP           [THE_MAIN_LOOP]":
(PID.TID 0000.0001)           User time:   35.289478302001953
(PID.TID 0000.0001)         System time:   8.2169771194458008E-003
(PID.TID 0000.0001)     Wall clock time:   35.297286510467529
(PID.TID 0000.0001)          No. starts:           8
(PID.TID 0000.0001)           No. stops:           8
(PID.TID 0000.0001)   Seconds in section "MAIN_DO_LOOP        [THE_MAIN_LOOP]":
(PID.TID 0000.0001)           User time:   35.255153656005859
(PID.TID 0000.0001)         System time:   8.1849992275238037E-003
(PID.TID 0000.0001)     Wall clock time:   35.262937784194946
(PID.TID 0000.0001)          No. starts:          40
(PID.TID 0000.0001)           No. stops:          40
(PID.TID 0000.0001)   Seconds in section "COST_FINAL         [ADJOINT SPIN-DOWN]":
(PID.TID 0000.0001)           User time:   3.3542633056640625E-002
(PID.TID 0000.0001)         System time:   0.0000000000000000
(PID.TID 0000.0001)     Wall clock time:   3.3553123474121094E-002
(PID.TID 0000.0001)          No. starts:           8
(PID.TID 0000.0001)           No. stops:           8
(PID.TID 0000.0001) // ======================================================
(PID.TID 0000.0001) // Tile <-> Tile communication statistics
(PID.TID 0000.0001) // ======================================================
(PID.TID 0000.0001) // o Tile number: 000001
(PID.TID 0000.0001) //         No. X exchanges =              0
(PID.TID 0000.0001) //            Max. X spins =              0
(PID.TID 0000.0001) //            Min. X spins =     1000000000
(PID.TID 0000.0001) //          Total. X spins =              0
(PID.TID 0000.0001) //            Avg. X spins =       0.00E+00
(PID.TID 0000.0001) //         No. Y exchanges =              0
(PID.TID 0000.0001) //            Max. Y spins =              0
(PID.TID 0000.0001) //            Min. Y spins =     1000000000
(PID.TID 0000.0001) //          Total. Y spins =              0
(PID.TID 0000.0001) //            Avg. Y spins =       0.00E+00
(PID.TID 0000.0001) // o Tile number: 000002
(PID.TID 0000.0001) //         No. X exchanges =              0
(PID.TID 0000.0001) //            Max. X spins =              0
(PID.TID 0000.0001) //            Min. X spins =     1000000000
(PID.TID 0000.0001) //          Total. X spins =              0
(PID.TID 0000.0001) //            Avg. X spins =       0.00E+00
(PID.TID 0000.0001) //         No. Y exchanges =              0
(PID.TID 0000.0001) //            Max. Y spins =              0
(PID.TID 0000.0001) //            Min. Y spins =     1000000000
(PID.TID 0000.0001) //          Total. Y spins =              0
(PID.TID 0000.0001) //            Avg. Y spins =       0.00E+00
(PID.TID 0000.0001) // o Tile number: 000003
(PID.TID 0000.0001) //         No. X exchanges =              0
(PID.TID 0000.0001) //            Max. X spins =              0
(PID.TID 0000.0001) //            Min. X spins =     1000000000
(PID.TID 0000.0001) //          Total. X spins =              0
(PID.TID 0000.0001) //            Avg. X spins =       0.00E+00
(PID.TID 0000.0001) //         No. Y exchanges =              0
(PID.TID 0000.0001) //            Max. Y spins =              0
(PID.TID 0000.0001) //            Min. Y spins =     1000000000
(PID.TID 0000.0001) //          Total. Y spins =              0
(PID.TID 0000.0001) //            Avg. Y spins =       0.00E+00
(PID.TID 0000.0001) // o Tile number: 000004
(PID.TID 0000.0001) //         No. X exchanges =              0
(PID.TID 0000.0001) //            Max. X spins =              0
(PID.TID 0000.0001) //            Min. X spins =     1000000000
(PID.TID 0000.0001) //          Total. X spins =              0
(PID.TID 0000.0001) //            Avg. X spins =       0.00E+00
(PID.TID 0000.0001) //         No. Y exchanges =              0
(PID.TID 0000.0001) //            Max. Y spins =              0
(PID.TID 0000.0001) //            Min. Y spins =     1000000000
(PID.TID 0000.0001) //          Total. Y spins =              0
(PID.TID 0000.0001) //            Avg. Y spins =       0.00E+00
(PID.TID 0000.0001) // o Tile number: 000005
(PID.TID 0000.0001) //         No. X exchanges =              0
(PID.TID 0000.0001) //            Max. X spins =              0
(PID.TID 0000.0001) //            Min. X spins =     1000000000
(PID.TID 0000.0001) //          Total. X spins =              0
(PID.TID 0000.0001) //            Avg. X spins =       0.00E+00
(PID.TID 0000.0001) //         No. Y exchanges =              0
(PID.TID 0000.0001) //            Max. Y spins =              0
(PID.TID 0000.0001) //            Min. Y spins =     1000000000
(PID.TID 0000.0001) //          Total. Y spins =              0
(PID.TID 0000.0001) //            Avg. Y spins =       0.00E+00
(PID.TID 0000.0001) // o Tile number: 000006
(PID.TID 0000.0001) //         No. X exchanges =              0
(PID.TID 0000.0001) //            Max. X spins =              0
(PID.TID 0000.0001) //            Min. X spins =     1000000000
(PID.TID 0000.0001) //          Total. X spins =              0
(PID.TID 0000.0001) //            Avg. X spins =       0.00E+00
(PID.TID 0000.0001) //         No. Y exchanges =              0
(PID.TID 0000.0001) //            Max. Y spins =              0
(PID.TID 0000.0001) //            Min. Y spins =     1000000000
(PID.TID 0000.0001) //          Total. Y spins =              0
(PID.TID 0000.0001) //            Avg. Y spins =       0.00E+00
(PID.TID 0000.0001) // o Tile number: 000007
(PID.TID 0000.0001) //         No. X exchanges =              0
(PID.TID 0000.0001) //            Max. X spins =              0
(PID.TID 0000.0001) //            Min. X spins =     1000000000
(PID.TID 0000.0001) //          Total. X spins =              0
(PID.TID 0000.0001) //            Avg. X spins =       0.00E+00
(PID.TID 0000.0001) //         No. Y exchanges =              0
(PID.TID 0000.0001) //            Max. Y spins =              0
(PID.TID 0000.0001) //            Min. Y spins =     1000000000
(PID.TID 0000.0001) //          Total. Y spins =              0
(PID.TID 0000.0001) //            Avg. Y spins =       0.00E+00
(PID.TID 0000.0001) // o Tile number: 000008
(PID.TID 0000.0001) //         No. X exchanges =              0
(PID.TID 0000.0001) //            Max. X spins =              0
(PID.TID 0000.0001) //            Min. X spins =     1000000000
(PID.TID 0000.0001) //          Total. X spins =              0
(PID.TID 0000.0001) //            Avg. X spins =       0.00E+00
(PID.TID 0000.0001) //         No. Y exchanges =              0
(PID.TID 0000.0001) //            Max. Y spins =              0
(PID.TID 0000.0001) //            Min. Y spins =     1000000000
(PID.TID 0000.0001) //          Total. Y spins =              0
(PID.TID 0000.0001) //            Avg. Y spins =       0.00E+00
(PID.TID 0000.0001) // o Tile number: 000009
(PID.TID 0000.0001) //         No. X exchanges =              0
(PID.TID 0000.0001) //            Max. X spins =              0
(PID.TID 0000.0001) //            Min. X spins =     1000000000
(PID.TID 0000.0001) //          Total. X spins =              0
(PID.TID 0000.0001) //            Avg. X spins =       0.00E+00
(PID.TID 0000.0001) //         No. Y exchanges =              0
(PID.TID 0000.0001) //            Max. Y spins =              0
(PID.TID 0000.0001) //            Min. Y spins =     1000000000
(PID.TID 0000.0001) //          Total. Y spins =              0
(PID.TID 0000.0001) //            Avg. Y spins =       0.00E+00
(PID.TID 0000.0001) // o Tile number: 000010
(PID.TID 0000.0001) //         No. X exchanges =              0
(PID.TID 0000.0001) //            Max. X spins =              0
(PID.TID 0000.0001) //            Min. X spins =     1000000000
(PID.TID 0000.0001) //          Total. X spins =              0
(PID.TID 0000.0001) //            Avg. X spins =       0.00E+00
(PID.TID 0000.0001) //         No. Y exchanges =              0
(PID.TID 0000.0001) //            Max. Y spins =              0
(PID.TID 0000.0001) //            Min. Y spins =     1000000000
(PID.TID 0000.0001) //          Total. Y spins =              0
(PID.TID 0000.0001) //            Avg. Y spins =       0.00E+00
(PID.TID 0000.0001) // o Tile number: 000011
(PID.TID 0000.0001) //         No. X exchanges =              0
(PID.TID 0000.0001) //            Max. X spins =              0
(PID.TID 0000.0001) //            Min. X spins =     1000000000
(PID.TID 0000.0001) //          Total. X spins =              0
(PID.TID 0000.0001) //            Avg. X spins =       0.00E+00
(PID.TID 0000.0001) //         No. Y exchanges =              0
(PID.TID 0000.0001) //            Max. Y spins =              0
(PID.TID 0000.0001) //            Min. Y spins =     1000000000
(PID.TID 0000.0001) //          Total. Y spins =              0
(PID.TID 0000.0001) //            Avg. Y spins =       0.00E+00
(PID.TID 0000.0001) // o Tile number: 000012
(PID.TID 0000.0001) //         No. X exchanges =              0
(PID.TID 0000.0001) //            Max. X spins =              0
(PID.TID 0000.0001) //            Min. X spins =     1000000000
(PID.TID 0000.0001) //          Total. X spins =              0
(PID.TID 0000.0001) //            Avg. X spins =       0.00E+00
(PID.TID 0000.0001) //         No. Y exchanges =              0
(PID.TID 0000.0001) //            Max. Y spins =              0
(PID.TID 0000.0001) //            Min. Y spins =     1000000000
(PID.TID 0000.0001) //          Total. Y spins =              0
(PID.TID 0000.0001) //            Avg. Y spins =       0.00E+00
(PID.TID 0000.0001) // o Thread number: 000001
(PID.TID 0000.0001) //            No. barriers =          70536
(PID.TID 0000.0001) //      Max. barrier spins =              1
(PID.TID 0000.0001) //      Min. barrier spins =              1
(PID.TID 0000.0001) //     Total barrier spins =          70536
(PID.TID 0000.0001) //      Avg. barrier spins =       1.00E+00
PROGRAM MAIN: Execution ended Normally
