(PID.TID 0000.0001) 
(PID.TID 0000.0001) // ======================================================
(PID.TID 0000.0001) //                      MITgcm UV
(PID.TID 0000.0001) //                      =========
(PID.TID 0000.0001) // ======================================================
(PID.TID 0000.0001) // execution environment starting up...
(PID.TID 0000.0001) // Run starting Wed Apr  1 14:19:48 1998
(PID.TID 0000.0001) // on melville.lcs.mit.edu
(PID.TID 0000.0001) // account cnh
(PID.TID 0000.0001) // MITgcm UV Release: $Name:  $
(PID.TID 0000.0001) 
(PID.TID 0000.0001) // =======================================================
(PID.TID 0000.0001) // Execution Environment parameter file "eedata"
(PID.TID 0000.0001) // =======================================================
(PID.TID 0000.0001) ># Example "eedata" file
(PID.TID 0000.0001) ># Lines beginning "#" are comments
(PID.TID 0000.0001) ># nTx - No. threads per process in X
(PID.TID 0000.0001) ># nTy - No. threads per process in Y
(PID.TID 0000.0001) > &EEPARMS
(PID.TID 0000.0001) > useCubedSphereExchange=.TRUE.,
(PID.TID 0000.0001) > nTx=1,nTy=1
(PID.TID 0000.0001) > &
(PID.TID 0000.0001) ># Note: Some systems use & as the
(PID.TID 0000.0001) ># namelist terminator. Other systems
(PID.TID 0000.0001) ># use a / character (as shown here).
(PID.TID 0000.0001) 
(PID.TID 0000.0001) // =======================================================
(PID.TID 0000.0001) // Computational Grid Specification ( see files "SIZE.h" )
(PID.TID 0000.0001) //                                  ( and "eedata"       )
(PID.TID 0000.0001) // =======================================================
(PID.TID 0000.0001)      nPx =    1 ; /* No. processes in X */
(PID.TID 0000.0001)      nPy =    1 ; /* No. processes in Y */
(PID.TID 0000.0001)      nSx =    6 ; /* No. tiles in X per process */
(PID.TID 0000.0001)      nSy =    1 ; /* No. tiles in Y per process */
(PID.TID 0000.0001)      sNx =   32 ; /* Tile size in X */
(PID.TID 0000.0001)      sNy =   32 ; /* Tile size in Y */
(PID.TID 0000.0001)      OLx =    2 ; /* Tile overlap distance in X */
(PID.TID 0000.0001)      OLy =    2 ; /* Tile overlap distance in Y */
(PID.TID 0000.0001)      nTx =    1 ; /* No. threads in X per process */
(PID.TID 0000.0001)      nTy =    1 ; /* No. threads in Y per process */
(PID.TID 0000.0001)       Nr =   15 ; /* No. levels in the vertical   */
(PID.TID 0000.0001)       nX =  192 ; /* Total domain size in X ( = nPx*nSx*sNx ) */
(PID.TID 0000.0001)       nY =   32 ; /* Total domain size in Y ( = nPy*nSy*sNy ) */
(PID.TID 0000.0001)   nTiles =    6 ; /* Total no. tiles per process ( = nSx*nSy ) */
(PID.TID 0000.0001)   nProcs =    1 ; /* Total no. processes ( = nPx*nPy ) */
(PID.TID 0000.0001) nThreads =    1 ; /* Total no. threads per process ( = nTx*nTy ) */
(PID.TID 0000.0001) usingMPI =    F ; /* Flag used to control whether MPI is in use */
(PID.TID 0000.0001)                   /*  note: To execute a program with MPI calls */
(PID.TID 0000.0001)                   /*  it must be launched appropriately e.g     */
(PID.TID 0000.0001)                   /*  "mpirun -np 64 ......"                    */
(PID.TID 0000.0001) 
(PID.TID 0000.0001) // ======================================================
(PID.TID 0000.0001) // Mapping of tiles to threads
(PID.TID 0000.0001) // ======================================================
(PID.TID 0000.0001) // -o- Thread   1, tiles (   1:   6,   1:   1)
(PID.TID 0000.0001) 
(PID.TID 0000.0001) // ======================================================
(PID.TID 0000.0001) // Tile <-> Tile connectvity table
(PID.TID 0000.0001) // ======================================================
(PID.TID 0000.0001) // Tile number: 000001 (process no. = 000001)
(PID.TID 0000.0001) //        WEST: Tile = 000006, Process = 000001, Comm = put
(PID.TID 0000.0001) //                bi = 000006, bj = 000001
(PID.TID 0000.0001) //        EAST: Tile = 000002, Process = 000001, Comm = put
(PID.TID 0000.0001) //                bi = 000002, bj = 000001
(PID.TID 0000.0001) //       SOUTH: Tile = 000001, Process = 000001, Comm = put
(PID.TID 0000.0001) //                bi = 000001, bj = 000001
(PID.TID 0000.0001) //       NORTH: Tile = 000001, Process = 000001, Comm = put
(PID.TID 0000.0001) //                bi = 000001, bj = 000001
(PID.TID 0000.0001) // Tile number: 000002 (process no. = 000001)
(PID.TID 0000.0001) //        WEST: Tile = 000001, Process = 000001, Comm = put
(PID.TID 0000.0001) //                bi = 000001, bj = 000001
(PID.TID 0000.0001) //        EAST: Tile = 000003, Process = 000001, Comm = put
(PID.TID 0000.0001) //                bi = 000003, bj = 000001
(PID.TID 0000.0001) //       SOUTH: Tile = 000002, Process = 000001, Comm = put
(PID.TID 0000.0001) //                bi = 000002, bj = 000001
(PID.TID 0000.0001) //       NORTH: Tile = 000002, Process = 000001, Comm = put
(PID.TID 0000.0001) //                bi = 000002, bj = 000001
(PID.TID 0000.0001) // Tile number: 000003 (process no. = 000001)
(PID.TID 0000.0001) //        WEST: Tile = 000002, Process = 000001, Comm = put
(PID.TID 0000.0001) //                bi = 000002, bj = 000001
(PID.TID 0000.0001) //        EAST: Tile = 000004, Process = 000001, Comm = put
(PID.TID 0000.0001) //                bi = 000004, bj = 000001
(PID.TID 0000.0001) //       SOUTH: Tile = 000003, Process = 000001, Comm = put
(PID.TID 0000.0001) //                bi = 000003, bj = 000001
(PID.TID 0000.0001) //       NORTH: Tile = 000003, Process = 000001, Comm = put
(PID.TID 0000.0001) //                bi = 000003, bj = 000001
(PID.TID 0000.0001) // Tile number: 000004 (process no. = 000001)
(PID.TID 0000.0001) //        WEST: Tile = 000003, Process = 000001, Comm = put
(PID.TID 0000.0001) //                bi = 000003, bj = 000001
(PID.TID 0000.0001) //        EAST: Tile = 000005, Process = 000001, Comm = put
(PID.TID 0000.0001) //                bi = 000005, bj = 000001
(PID.TID 0000.0001) //       SOUTH: Tile = 000004, Process = 000001, Comm = put
(PID.TID 0000.0001) //                bi = 000004, bj = 000001
(PID.TID 0000.0001) //       NORTH: Tile = 000004, Process = 000001, Comm = put
(PID.TID 0000.0001) //                bi = 000004, bj = 000001
(PID.TID 0000.0001) // Tile number: 000005 (process no. = 000001)
(PID.TID 0000.0001) //        WEST: Tile = 000004, Process = 000001, Comm = put
(PID.TID 0000.0001) //                bi = 000004, bj = 000001
(PID.TID 0000.0001) //        EAST: Tile = 000006, Process = 000001, Comm = put
(PID.TID 0000.0001) //                bi = 000006, bj = 000001
(PID.TID 0000.0001) //       SOUTH: Tile = 000005, Process = 000001, Comm = put
(PID.TID 0000.0001) //                bi = 000005, bj = 000001
(PID.TID 0000.0001) //       NORTH: Tile = 000005, Process = 000001, Comm = put
(PID.TID 0000.0001) //                bi = 000005, bj = 000001
(PID.TID 0000.0001) // Tile number: 000006 (process no. = 000001)
(PID.TID 0000.0001) //        WEST: Tile = 000005, Process = 000001, Comm = put
(PID.TID 0000.0001) //                bi = 000005, bj = 000001
(PID.TID 0000.0001) //        EAST: Tile = 000001, Process = 000001, Comm = put
(PID.TID 0000.0001) //                bi = 000001, bj = 000001
(PID.TID 0000.0001) //       SOUTH: Tile = 000006, Process = 000001, Comm = put
(PID.TID 0000.0001) //                bi = 000006, bj = 000001
(PID.TID 0000.0001) //       NORTH: Tile = 000006, Process = 000001, Comm = put
(PID.TID 0000.0001) //                bi = 000006, bj = 000001
(PID.TID 0000.0001) 
(PID.TID 0000.0001) // =======================================================
(PID.TID 0000.0001) // Model parameter file "data"
(PID.TID 0000.0001) // =======================================================
(PID.TID 0000.0001) ># ====================
(PID.TID 0000.0001) ># | Model parameters |
(PID.TID 0000.0001) ># ====================
(PID.TID 0000.0001) >#
(PID.TID 0000.0001) ># Continuous equation parameters
(PID.TID 0000.0001) > &PARM01
(PID.TID 0000.0001) > tRef=15*20.,
(PID.TID 0000.0001) > sRef=15*35.,
(PID.TID 0000.0001) > viscAh =3.E5,
(PID.TID 0000.0001) > viscAr =1.E-3,
(PID.TID 0000.0001) > diffKhT=0.,
(PID.TID 0000.0001) > diffK4T=0.,
(PID.TID 0000.0001) > diffKrT=3.E-5,
(PID.TID 0000.0001) > diffKhS=0.,
(PID.TID 0000.0001) > diffK4S=0.,
(PID.TID 0000.0001) > diffKrS=3.E-5,
(PID.TID 0000.0001) > ivdc_kappa=10.,
(PID.TID 0000.0001) > implicitDiffusion=.TRUE.,
(PID.TID 0000.0001) > gravity=9.81,
(PID.TID 0000.0001) > rhonil=1035.,
(PID.TID 0000.0001) > rhoConstFresh=1000.,
(PID.TID 0000.0001) > eosType='JMD95Z',
(PID.TID 0000.0001) >#staggerTimeStep=.TRUE.,
(PID.TID 0000.0001) > vectorInvariantMomentum=.TRUE.,
(PID.TID 0000.0001) > implicitFreeSurface=.TRUE.,
(PID.TID 0000.0001) > exactConserv=.TRUE.,
(PID.TID 0000.0001) >#select_rStar=2,
(PID.TID 0000.0001) >#nonlinFreeSurf=4,
(PID.TID 0000.0001) > hFacInf=0.2,
(PID.TID 0000.0001) > hFacSup=2.0,
(PID.TID 0000.0001) >#useRealFreshWaterFlux=.TRUE.,
(PID.TID 0000.0001) >#allowFreezing=.TRUE.,
(PID.TID 0000.0001) > hFacMin=.1,
(PID.TID 0000.0001) > hFacMinDr=20.,
(PID.TID 0000.0001) > readBinaryPrec=64,
(PID.TID 0000.0001) > &
(PID.TID 0000.0001) >
(PID.TID 0000.0001) ># Elliptic solver parameters
(PID.TID 0000.0001) > &PARM02
(PID.TID 0000.0001) > cg2dMaxIters=200,
(PID.TID 0000.0001) >#cg2dTargetResidual=1.E-9,
(PID.TID 0000.0001) > cg2dTargetResWunit=1.E-14,
(PID.TID 0000.0001) > &
(PID.TID 0000.0001) >
(PID.TID 0000.0001) ># Time stepping parameters
(PID.TID 0000.0001) > &PARM03
(PID.TID 0000.0001) > nIter0=72000,
(PID.TID 0000.0001) > nTimeSteps=20,
(PID.TID 0000.0001) > deltaTmom   =1200.,
(PID.TID 0000.0001) > deltaTtracer=86400.,
(PID.TID 0000.0001) > deltaTfreesurf=86400.,
(PID.TID 0000.0001) > deltaTClock =86400.,
(PID.TID 0000.0001) > abEps = 0.1,
(PID.TID 0000.0001) > forcing_In_AB=.FALSE.,
(PID.TID 0000.0001) > pChkptFreq  =31104000.,
(PID.TID 0000.0001) > taveFreq    =31104000.,
(PID.TID 0000.0001) > dumpFreq    =31104000.,
(PID.TID 0000.0001) > monitorFreq =2592000.,
(PID.TID 0000.0001) >#tave_lastIter=0.,
(PID.TID 0000.0001) > periodicExternalForcing=.TRUE.,
(PID.TID 0000.0001) > externForcingPeriod=2592000.,
(PID.TID 0000.0001) > externForcingCycle=31104000.,
(PID.TID 0000.0001) ># 2 months restoring timescale for temperature
(PID.TID 0000.0001) > tauThetaClimRelax = 5184000.,
(PID.TID 0000.0001) ># 6 months restoring timescale for salinity
(PID.TID 0000.0001) > tauSaltClimRelax = 15552000.,
(PID.TID 0000.0001) > latBandClimRelax=50.,
(PID.TID 0000.0001) > monitorFreq =1.,
(PID.TID 0000.0001) > &
(PID.TID 0000.0001) >
(PID.TID 0000.0001) ># Gridding parameters
(PID.TID 0000.0001) > &PARM04
(PID.TID 0000.0001) > usingCartesianGrid=.FALSE.,
(PID.TID 0000.0001) > usingSphericalPolarGrid=.FALSE.,
(PID.TID 0000.0001) > usingCurvilinearGrid=.TRUE.,
(PID.TID 0000.0001) > delR= 50., 70., 100., 140., 190.,
(PID.TID 0000.0001) >       240., 290., 340., 390., 440.,
(PID.TID 0000.0001) >       490., 540., 590., 640., 690.,
(PID.TID 0000.0001) > &
(PID.TID 0000.0001) >
(PID.TID 0000.0001) ># Input datasets
(PID.TID 0000.0001) > &PARM05
(PID.TID 0000.0001) > bathyFile      ='bathy_Hmin50.bin',
(PID.TID 0000.0001) > hydrogThetaFile='lev_T_cs_15k.bin',
(PID.TID 0000.0001) > hydrogSaltFile ='lev_S_cs_15k.bin',
(PID.TID 0000.0001) > zonalWindFile  ='trenberth_taux.bin',
(PID.TID 0000.0001) > meridWindFile  ='trenberth_tauy.bin',
(PID.TID 0000.0001) > thetaClimFile  ='lev_surfT_cs_12m.bin',
(PID.TID 0000.0001) > saltClimFile   ='lev_surfS_cs_12m.bin',
(PID.TID 0000.0001) > surfQFile      ='shiQnet_cs32.bin',
(PID.TID 0000.0001) > EmPmRFile      ='shiEmPR_cs32.bin',
(PID.TID 0000.0001) > &
(PID.TID 0000.0001) 
(PID.TID 0000.0001) S/R INI_PARMS ; read PARM01 : OK
(PID.TID 0000.0001) S/R INI_PARMS ; read PARM02 : OK
(PID.TID 0000.0001) S/R INI_PARMS ; read PARM03 : OK
(PID.TID 0000.0001) S/R INI_PARMS ; read PARM04 : OK
(PID.TID 0000.0001) S/R INI_PARMS ; read PARM05 : OK
(PID.TID 0000.0001)  MDSREADFIELD: opening global file: LONC.bin
(PID.TID 0000.0001)  MDSREADFIELD: opening global file: LATC.bin
(PID.TID 0000.0001)  MDSREADFIELD: opening global file: DXF.bin
(PID.TID 0000.0001)  MDSREADFIELD: opening global file: DYF.bin
(PID.TID 0000.0001)  MDSREADFIELD: opening global file: RA.bin
(PID.TID 0000.0001)  MDSREADFIELD: opening global file: LONG.bin
(PID.TID 0000.0001)  MDSREADFIELD: opening global file: LATG.bin
(PID.TID 0000.0001)  MDSREADFIELD: opening global file: DXV.bin
(PID.TID 0000.0001)  MDSREADFIELD: opening global file: DYU.bin
(PID.TID 0000.0001)  MDSREADFIELD: opening global file: RAZ.bin
(PID.TID 0000.0001)  MDSREADFIELD: opening global file: DXC.bin
(PID.TID 0000.0001)  MDSREADFIELD: opening global file: DYC.bin
(PID.TID 0000.0001)  MDSREADFIELD: opening global file: RAW.bin
(PID.TID 0000.0001)  MDSREADFIELD: opening global file: RAS.bin
(PID.TID 0000.0001)  MDSREADFIELD: opening global file: DXG.bin
(PID.TID 0000.0001)  MDSREADFIELD: opening global file: DYG.bin
(PID.TID 0000.0001)  MDSREADFIELD: opening global file: bathy_Hmin50.bin
(PID.TID 0000.0001) // =======================================================
(PID.TID 0000.0001) // Field Model R_low (ini_masks_etc) at iteration          1
(PID.TID 0000.0001) // CMIN =         -5.200000000000000E+03
(PID.TID 0000.0001) // CMAX =         -5.000000000000000E+01
(PID.TID 0000.0001) // CINT =          1.907407407407407E+02
(PID.TID 0000.0001) // SYMBOLS (CMIN->CMAX): -abcdefghijklmnopqrstuvwxyz+
(PID.TID 0000.0001) //                  0.0: .
(PID.TID 0000.0001) // RANGE I (Lo:Hi:Step):(  -1: 194:   1)
(PID.TID 0000.0001) // RANGE J (Lo:Hi:Step):(  34:  -1:  -1)
(PID.TID 0000.0001) // RANGE K (Lo:Hi:Step):(   1:   1:   1)
(PID.TID 0000.0001) // =======================================================
(PID.TID 0000.0001) K =   1
(PID.TID 0000.0001) //                I=8       I=18      I=28      I=34      I=44      I=54      I=64      I=70      I=80      I=90      I=96      I=106     I=116     I=126     I=132     I=142     I=152     I=162     I=168     I=178     I=188
(PID.TID 0000.0001) // |--J--|*01234567|901234567|901234567|901234123|567890123|567890123|567890123|563456789|123456789|123456789|123456785|789012345|789012345|789012345|789078901|345678901|345678901|345678901|901234567|901234567|901234567|901234
(PID.TID 0000.0001) //     34 ..a-abcehjnldcclz+........spps...................................vkqn+....cbba--aabfu+..............hcbaaa....aaccdccbaaabbddddccdffffghfeeeee....efilhfcaaaacgceei.......zomggfca....ecbbccddefilihecbaacbaajfega-aes..
(PID.TID 0000.0001) //     33 ..bbccceiomkfdbbc+.......+s......................................xsrxz....db-----adu+...............hcbaa-....-accddba--bbbddddccdfffhhgfeeddc....dfgikhfffdfgccffw........zohhgeb....baaaaaccdfhlhfefdcccaabjefbaaafo..
(PID.TID 0000.0001) //     32 bddefhhkqqlgfaakqz..v.+..+.....................................++..u+...fdba----adu+................kdcaaa-aaa-accdcb---bbbcdddddefffggfeeedccccbbdcdfgghhiihcbeiw.........+ynjgebaaebaaaa-aacccfikkhecccbbbaaabaadfklnq
(PID.TID 0000.0001) //     31 bcffijnpnqneaaat..umrr+s.z.....................................+++++.ztsfeb--dfdfu+................+lkdca--aa--abcccb---bbbbddddeffflhfeeeecbbbb-abbacbcdceffbbfw+..........++ujfbaafbaaa----aacffiljgfffcca--adfikkiihh
(PID.TID 0000.0001) //     30 adgillkkkifcadcx.ymmqzqikvnnps.................................+++++wmegifcacdlqx+++...............mligea---a---abbbb---abaaddddeedkmeddefdbbbaa---b--aaaaabaabm..............+viba-iba-------acdefinmlgiieb-chnnnmlmlgf
(PID.TID 0000.0001) //     29 cfiljigfjd--efdozy...+ximpnnuz..................................+++yqddhjhcbbchz+......++.........+mmhffc---c----aaba------acdddcbcineddgdbaaa--d--a------aa-bfz...............+qe--qe---aa---aedeegknmlgiigcdfhpokkimlf
(PID.TID 0000.0001) //     28 bgkhfcccea-bdei........t........................................++zwgfcfnhccbbhwwy.....+++........+njfeed---d-----aa-------abddcabcnfddegcaaa---f------------dk+................+ja-+ja------bffdddehfd--bedaacfhpnligii
(PID.TID 0000.0001) //     27 cghfbaaaa-achmy..........................+++....................++vnbbbcpkeeecflmqxy....++........+lhfeecc--cc------------aaadcbabcfhddccba-----d-----------irw.................++e-++e-----mhmijddda--------ahhfiokhede
(PID.TID 0000.0001) //     26 dhfca-----bfiv...........................++sy...................+tq-fdbbnqiheddefhiksz++++........zkhfdccb--cb------------aabdcaaaacfddbca------fa-abb-----vvv...................+wa.+wa---mlmkijhc----------cjjffiheb-a
(PID.TID 0000.0001) //     25 chfa------ch+..................w...........njo+................+x-----bcqqojfefiiiijmy.++.........zkhfdbaa--aa-------daa---acccaaaacccca--------udaabbb----tei...................++q.++qdeqnghiljcaaaaidaa----beedeeca--
(PID.TID 0000.0001) //     24 eifa--acbcei...................w...........likn+.....++.....++znpa----bbnlmnjhinlksssw............qhfeca------------addc--aeffaaaaaaccb-a----a--+udbbaba---ven....................++..++xywnfgllcbbabegkecba----ddddcaac
(PID.TID 0000.0001) //     23 fida-aabchjk...................zz...z.....nhhijz....tqq.....+ujgzgd---abegklkkknols..xuu..........zgfdba------------bcd---affaaadffabbb-----aa-b.+ufb-----l.gx...........s.........+...++zzkfilfccccoz..ulkcd---bccnfddd
(PID.TID 0000.0001) //     22 fhfaa---bfgi....................zz..zz..rnjffggm...nlmn+....+sffzya--aabaffdfhimrmp...yuu.++.......zudba------------adc---dda-adffe-aa--------aa..+ufc-baaqvhh..........dcfeeh..........++zggqvifefhz......zobbaccfwuffe
(PID.TID 0000.0001) //     21 bcgca----abe.....................yss.ysstlgeeeeoz..ijklt+....lfjzzf---adaadcehllotq....yy+++zzs.....+zcba---a-------cdd--aaa----df------------aa...+upjdcy.vohq.......+idcdfeeefwz..wz....+hhn.vklox.........gdccfjwrigf
(PID.TID 0000.0001) //     20 bbcgfcaa-aae+...........................lcgfdddhq.+hiilnz++.+oquxyz--adgaabcfmtooyxz......+yuiiy....++gb------------ddcca-a-----acbaa------bbaaa......ywxy.lulo.lv...kcdgddffefffilyfilyx+fffk.+xyyy.........mgeimvskjkl
(PID.TID 0000.0001) //     19 feccdghfeegcbt..........................aafifccgnrzgghjry.+++sr+lq.--edftkblwnnsp.vv......skhggt...+++t-------------bdaf---------edd-------adlaa.........vnhzy.tllqiedccdhggfggffiigfiiggfcbdgy..yz..........xigqophijkk
(PID.TID 0000.0001) //     18 wifedfkhfegbbcivlqfoz..............j...jaacfihggokeeffgt..++++..hhlfdedd.qcz+.zwxtsttz..ysrkhot++++++zig------------b--f---------egqqqaa----frb-.......+kkrhw.vqmlnieddcdehgggffgigegigedbaaceiy.............zilrddefikk
(PID.TID 0000.0001) //     17 +wfeefikhgcbbccaaacgn.............ic..icaaccfihfoedddeedy..++...nnqwgfee.z++..+zsjjllllljllpjos+++.+zhhi---------e-----ea--------foqqoqqo--hlwge.......+nk+..xiioonhfefddegihhghigfdigfdbaaabdgx..............nheddefikl
(PID.TID 0000.0001) //     16 ..wiheddeccdfhfbabdfl............jdb.jdbaddddgifkccccdccd+.++..++ynvz.tku....++zyslllllkhggkmpy++...ihhi---------ea---feb-----a-acnoohfghknvmwnu........qhu..hhhkojgffgeefghihhiieedieedbaaabcdy..............ygddeghilj
(PID.TID 0000.0001) //     15 ....ylea--acfihebcbbes..........sfcbsfcbbngfffigcaaabdbcac+.+++++zgmpx..m....++..zslwz.yhhhhnz+++...rhgc--------ab----ige----acaaalllkddfiy..ysw........thk.xgghiligfghfefhhhhiiheedheedcdbbabdmz.............zfdeghikki
(PID.TID 0000.0001) //     14 ......c---acgkhdcc--di..........ofddofddchohffikaaaaabaaa-aw+.+ysnggox++rv..........yzzzzrjil+++....qhgd---------a-----i---cccdeabkklldinqssy..x.........+y.uhghikihgfghefgihhhgeeeeeeeeeddbaadhw.............nedeghjjhf
(PID.TID 0000.0001) //     13 .....+b----cfkhec---afz.........nhfdnhfdffholghkaaaaaba-a---flkkuswyy+++r...........zzzzz++ry++......yd------------------aeecdeidfkkqnqlmqquukqq............iihiijjhfefgefhjihiffgggfgggffecaabelx...........zjecehijhfe
(PID.TID 0000.0001) //     12 .....ec----chjhec---ag..........skiqskiqddeiiiifaaabae--a---dd--iu+++.++++..........+z+++++.+++....++.s----------------a-ceccdejhlllkqlkklssiccd...........wjkkkjjjigeefffgjiiighiiihiiihhhdaabdffghtxx......mfccehjiffd
(PID.TID 0000.0001) //     11 ....pdca--achlheba--ai..........nkn.nkn.fdemijidaaaabi-------a--q+....++s...........+++++..........+yyza--------b-----a--ccccddkhieekkossssfbbbb..........njjijhhihijhgggggjjjjijkkkjkkkkjjhcaacddeegpy.....xfdccdhjgfdd
(PID.TID 0000.0001) //     10 ....wfdb--achlhea---an.........uos..os..dcemikkfdcaabi-------equ+..................................zyvuq--------cc----a---dcfhkopqjeissrnpfbbccc........zslihhigghgijjihhhhkllkkkkkkkkkkjkkkedccdeeeeipz..zwhccbcdhgfddc
(PID.TID 0000.0001) //      9 ....vgec---bfikca--cjl+.......+nnv.+nv.+ccffhkkiddaadha-----as++........z++........................zxuuk----------a---a----djmqrrnlllsoiddcccccd.......+zjijhfgfggffhjkkkiillljihhghhhghgihighdeeffgghimnnjgecbbcdgfeccb
(PID.TID 0000.0001) //      8 ...zleca---afjfca--hdfz.......vkky.jky.jceddefijffdddhb--a-afv............ss.........................+yku---u--------------ejnpqqnninnritqdccchk......wihgghgeffffeefhijkjkljiigeeffeeffefffhjhhikkklljklmhffeeeggfdcbaa
(PID.TID 0000.0001) //      7 .+zohec--abcfkhecbchbdx.......qiht.fht.faaaabdgijgfededcdcb-f+.............pz.........................+zu---u--------------edefqgqddsz+......+yu+....tiggfggfeeeefeeefiiiijkiihhedddeddddddddjjllliijhfkmmkkjjhijgdcba--
(PID.TID 0000.0001) //      6 +yomfddcaabefkifdchaadt......uqdeisceisc----dfefgifffkklldc--v.............pp.........................v.x---x---------a----fbbpqgzenx+........zdlkhhfffffffgfeeeeeeeefhhhhijihhffddcfddcbbbbdhhiihedddb-cfhhhjjjieca----
(PID.TID 0000.0001) //      5 +nhgffkghccfhkhffgdaackz....uoibcimlcimlaaacfbddfjjhijeehf-a-c.............su.........................qk.yi-.yi-------gha-fjddqs+xkrz.........q-kdccdeeeeeeedddedddddgghhhhjhhgffcbbfcbbaaaaddfegecca----dfeefhfgdb-----
(PID.TID 0000.0001) //      4 ujhgfllfhdffhkfffca-aady...llnabdopfdopfcbdgdbcdehlihgfddc--ms........................................okn.zdn.zd---eciiiicfkeeqy.ysz..........n-dcbbdeddedcdcccdddcddffggghiggfffdbafdbaa---acdcccba--abvfedeffdcca----b
(PID.TID 0000.0001) //      3 jggfcceeffffjlkjgaa---bfvheeln-aesphesphfdhgabddeflihhgfecbaaayq+++++.................................kqnz.vnz.vtpkllgdccfkkkkk..++..........+g-caaadcdddcbbbbcdddcccdffffghgffffdcafdcaa----abcaaaa-acxxmecdjmdbba----r
(PID.TID 0000.0001) //      2 feecbbccddefilihecbaacbaajfega-aesqhesqhffiea-cdeflkkljifeddcba---bry+...............................vkqn+.sn+.sghfcbcbbbdgfdek.++++.........+l-aaaaccdccbaaabbddddccdffffghfeeeeecbeecba------baaaa-euwxqdbcdkud-----sy
(PID.TID 0000.0001) //      1 bbbaaaaaccdfhlhfefdcccaabjefbaaafonhfonhglid--adfgkkkklkhffddca-----s+++.............................xsrxz.txz.tedcbbbbaaadddet.++++.........+l--a-accddba--bbbddddccdfffhhgfeeddccbdccba-------aaaabgns.qcbcchyzqngll++
(PID.TID 0000.0001) //      0 ..aaaa-aacccfikkhecccbbbaaabaadfkl....lilmgebaadfijjiiikjhffdcba-----l.............................++..u+......zmdfbd---a-aeef.xx+..........++....-accdcb---bbbcdddddefffggfeeedcc....cbba----aa--alrwwy.kcbccc+...+++..
(PID.TID 0000.0001) //     -1 ..aaa----aacffiljgfffcca--adfikkii....kimiiheccfurkiffhijjigfecb-----l.............................+++++.z....+.wqgbf-------dgzpoy+........+ys....-abcccb---bbbbddddeffflhfeeeecbb....cbbaa----a--bdflm.yuibbcc.........
(PID.TID 0000.0001) // =======================================================
(PID.TID 0000.0001) // END OF FIELD                                          =
(PID.TID 0000.0001) // =======================================================
(PID.TID 0000.0001) 
(PID.TID 0000.0001) // =======================================================
(PID.TID 0000.0001) // Field Model Ro_surf (ini_masks_etc) at iteration          1
(PID.TID 0000.0001) // CMIN =         -7.105427357601002E-15
(PID.TID 0000.0001) // CMAX =         -7.105427357601002E-15
(PID.TID 0000.0001) // CINT =          0.000000000000000E+00
(PID.TID 0000.0001) // SYMBOLS (CMIN->CMAX): -abcdefghijklmnopqrstuvwxyz+
(PID.TID 0000.0001) //                  0.0: .
(PID.TID 0000.0001) // RANGE I (Lo:Hi:Step):(  -1: 194:   1)
(PID.TID 0000.0001) // RANGE J (Lo:Hi:Step):(  34:  -1:  -1)
(PID.TID 0000.0001) // RANGE K (Lo:Hi:Step):(   1:   1:   1)
(PID.TID 0000.0001) // =======================================================
(PID.TID 0000.0001) K =   1
(PID.TID 0000.0001) //                I=8       I=18      I=28      I=34      I=44      I=54      I=64      I=70      I=80      I=90      I=96      I=106     I=116     I=126     I=132     I=142     I=152     I=162     I=168     I=178     I=188
(PID.TID 0000.0001) // |--J--|*01234567|901234567|901234567|901234123|567890123|567890123|567890123|563456789|123456789|123456789|123456785|789012345|789012345|789012345|789078901|345678901|345678901|345678901|901234567|901234567|901234567|901234
(PID.TID 0000.0001) //     34 ........................................................................................................................................................................................................................
(PID.TID 0000.0001) //     33 ........................................................................................................................................................................................................................
(PID.TID 0000.0001) //     32 ........................................................................................................................................................................................................................
(PID.TID 0000.0001) //     31 ........................................................................................................................................................................................................................
(PID.TID 0000.0001) //     30 ........................................................................................................................................................................................................................
(PID.TID 0000.0001) //     29 ................................................................................-.......................................................................................................................................
(PID.TID 0000.0001) //     28 ........................................................................................................................................................................................................................
(PID.TID 0000.0001) //     27 .................................................................-......................................................................................................................................................
(PID.TID 0000.0001) //     26 ........................................................................................................................................................................................................................
(PID.TID 0000.0001) //     25 ........................................................................................................................................................................................................................
(PID.TID 0000.0001) //     24 ........................................................................................................................................................................................................................
(PID.TID 0000.0001) //     23 ........................................................................................................................................................................................................................
(PID.TID 0000.0001) //     22 ........................................................................................................................................................................................................................
(PID.TID 0000.0001) //     21 ........................................................................................................................................................................................................................
(PID.TID 0000.0001) //     20 ............................................................-...........................................................................................................................................................
(PID.TID 0000.0001) //     19 ........................................................................................................................................................................................................................
(PID.TID 0000.0001) //     18 ........................................................................................................................................................................................................................
(PID.TID 0000.0001) //     17 ........................................................................................................................................................................................................................
(PID.TID 0000.0001) //     16 ........................................................................................................................................................................................................................
(PID.TID 0000.0001) //     15 ........................................................................................................................................................................................................................
(PID.TID 0000.0001) //     14 ........................................................................................................................................................................................................................
(PID.TID 0000.0001) //     13 ........................................................................................................................................................................................................................
(PID.TID 0000.0001) //     12 ........................................................................................................................................................................................................................
(PID.TID 0000.0001) //     11 ........................................................................................................................................................................................................................
(PID.TID 0000.0001) //     10 ........................................................................................................................................................................................................................
(PID.TID 0000.0001) //      9 ..............................-....-...-................................................................................................................................................................................
(PID.TID 0000.0001) //      8 ........................................................................................................................................................................................................................
(PID.TID 0000.0001) //      7 ........................................................................................................................................................................................................................
(PID.TID 0000.0001) //      6 ........................................................................................................................................................................................................................
(PID.TID 0000.0001) //      5 ........................................................................................................................................................................................................................
(PID.TID 0000.0001) //      4 ........................................................................................................................................................................................................................
(PID.TID 0000.0001) //      3 ........................................................................................................................................................................................................................
(PID.TID 0000.0001) //      2 ........................................................................................................................................................................................................................
(PID.TID 0000.0001) //      1 ........................................................................................................................................................................................................................
(PID.TID 0000.0001) //      0 ........................................................................................................................................................................................................................
(PID.TID 0000.0001) //     -1 ........................................................................................................................................................................................................................
(PID.TID 0000.0001) // =======================================================
(PID.TID 0000.0001) // END OF FIELD                                          =
(PID.TID 0000.0001) // =======================================================
(PID.TID 0000.0001) 
(PID.TID 0000.0001) // =======================================================
(PID.TID 0000.0001) // Field hFacC at iteration          1
(PID.TID 0000.0001) // CMIN =          1.000000000000000E+00
(PID.TID 0000.0001) // CMAX =          1.000000000000000E+00
(PID.TID 0000.0001) // CINT =          0.000000000000000E+00
(PID.TID 0000.0001) // SYMBOLS (CMIN->CMAX): -abcdefghijklmnopqrstuvwxyz+
(PID.TID 0000.0001) //                  0.0: .
(PID.TID 0000.0001) // RANGE I (Lo:Hi:Step):(  -1: 194:   1)
(PID.TID 0000.0001) // RANGE J (Lo:Hi:Step):(  34:  -1:  -1)
(PID.TID 0000.0001) // RANGE K (Lo:Hi:Step):(   1:   1:   1)
(PID.TID 0000.0001) // =======================================================
(PID.TID 0000.0001) K =   1
(PID.TID 0000.0001) //                I=8       I=18      I=28      I=34      I=44      I=54      I=64      I=70      I=80      I=90      I=96      I=106     I=116     I=126     I=132     I=142     I=152     I=162     I=168     I=178     I=188
(PID.TID 0000.0001) // |--J--|*01234567|901234567|901234567|901234123|567890123|567890123|567890123|563456789|123456789|123456789|123456785|789012345|789012345|789012345|789078901|345678901|345678901|345678901|901234567|901234567|901234567|901234
(PID.TID 0000.0001) //     34 ..----------------........----...................................-----....------------..............------....--------------------------------....-----------------.......--------....--------------------------------..
(PID.TID 0000.0001) //     33 ..----------------.......--......................................-----....-----------...............------....--------------------------------....-----------------........-------....--------------------------------..
(PID.TID 0000.0001) //     32 ------------------..-.-..-.....................................--..--...------------................--------------------------------------------------------------.........---------------------------------------------
(PID.TID 0000.0001) //     31 ----------------..------.-.....................................-----.--------------................---------------------------------------------------------------..........--------------------------------------------
(PID.TID 0000.0001) //     30 ----------------.-------------.................................---------------------...............-------------------------------------------------------------..............------------------------------------------
(PID.TID 0000.0001) //     29 ------------------...---------..................................-----------------......--.........--------------------------------------------------------------...............-----------------------------------------
(PID.TID 0000.0001) //     28 ---------------........-........................................------------------.....---........--------------------------------------------------------------................----------------------------------------
(PID.TID 0000.0001) //     27 ---------------..........................---....................--------------------....--........-------------------------------------------------------------.................----------------------------------------
(PID.TID 0000.0001) //     26 --------------...........................----...................--------------------------........------------------------------------------------------------...................---.-----------------------------------
(PID.TID 0000.0001) //     25 -------------..................-...........----................-----------------------.--.........------------------------------------------------------------...................---.-----------------------------------
(PID.TID 0000.0001) //     24 ------------...................-...........-----.....--.....--------------------------............------------------------------------------------------------....................--..----------------------------------
(PID.TID 0000.0001) //     23 ------------...................--...-.....------....---.....-----------------------..---..........----------------------------------------------.----------.--...........-.........-...---------------..----------------
(PID.TID 0000.0001) //     22 ------------....................--..--..--------...-----....-----------------------...---.--.......---------------------------------------------..------------..........------..........-------------......-------------
(PID.TID 0000.0001) //     21 ------------.....................---.------------..------....----------------------....--------.....--------------------------------------------...-------.----.......------------..--....----.-----.........-----------
(PID.TID 0000.0001) //     20 -------------...........................---------.---------.------------------------......------....--------------------------------------------......----.----.--...-------------------------.-----.........-----------
(PID.TID 0000.0001) //     19 --------------..........................-----------------.--------.--------------.--......------...---------------------------------------------.........-----.--------------------------------..--..........-----------
(PID.TID 0000.0001) //     18 ---------------------..............-...-----------------..----..--------.----.--------..--------------------------------------------------------.......------.----------------------------------.............-----------
(PID.TID 0000.0001) //     17 ---------------------.............--..-------------------..--...--------.---..--------------------.---------------------------------------------.......----..-----------------------------------..............----------
(PID.TID 0000.0001) //     16 ..-------------------............---.---------------------.--..------.---....--------------------...--------------------------------------------........---..-----------------------------------..............----------
(PID.TID 0000.0001) //     15 ....------------------..........---------------------------.----------..-....--..-----.----------...---------------------------------------..---........---.-------------------------------------.............----------
(PID.TID 0000.0001) //     14 ......----------------..........-----------------------------.------------..........------------....-----------------------------------------..-.........--.-------------------------------------.............----------
(PID.TID 0000.0001) //     13 .....------------------.........-----------------------------------------...........-----------......-------------------------------------------............--------------------------------------...........-----------
(PID.TID 0000.0001) //     12 .....-----------------..........-------------------------------------.----..........-------.---....--.------------------------------------------...........--------------------------------------------......-----------
(PID.TID 0000.0001) //     11 ....------------------..........---.---.--------------------------....---...........-----..........---------------------------------------------..........---------------------------------------------.....------------
(PID.TID 0000.0001) //     10 ....------------------.........---..--..-------------------------..................................---------------------------------------------........------------------------------------------------..--------------
(PID.TID 0000.0001) //      9 ....-------------------.......----.---.-------------------------........---........................---------------------------------------------.......-----------------------------------------------------------------
(PID.TID 0000.0001) //      8 ...--------------------.......----.---.-----------------------............--.........................-------------------------------------------......------------------------------------------------------------------
(PID.TID 0000.0001) //      7 .----------------------.......----.---.-----------------------.............--.........................---------------------------------......----....-------------------------------------------------------------------
(PID.TID 0000.0001) //      6 -----------------------......---------------------------------.............--.........................-.------------------------------........--------------------------------------------------------------------------
(PID.TID 0000.0001) //      5 ------------------------....----------------------------------.............--.........................--.---.------------------------.........--------------------------------------------------------------------------
(PID.TID 0000.0001) //      4 ------------------------...-----------------------------------........................................---.---.------------------.---..........--------------------------------------------------------------------------
(PID.TID 0000.0001) //      3 ---------------------------------------------------------------------.................................----.---.----------------..--..........---------------------------------------------------------------------------
(PID.TID 0000.0001) //      2 ----------------------------------------------------------------------...............................-----.---.----------------.----.........---------------------------------------------------------------------------
(PID.TID 0000.0001) //      1 ------------------------------------------------------------------------.............................-----.---.----------------.----.........-----------------------------------------------------------.---------------
(PID.TID 0000.0001) //      0 ..--------------------------------....--------------------------------.............................--..--......---------------.---..........--....--------------------------------....------------------.-------...---..
(PID.TID 0000.0001) //     -1 ..--------------------------------....--------------------------------.............................-----.-....-.-------------------........---....--------------------------------....-----------------.-------.........
(PID.TID 0000.0001) // =======================================================
(PID.TID 0000.0001) // END OF FIELD                                          =
(PID.TID 0000.0001) // =======================================================
(PID.TID 0000.0001) 
(PID.TID 0000.0001) // =======================================================
(PID.TID 0000.0001) // Field hFacW at iteration          1
(PID.TID 0000.0001) // CMIN =          1.000000000000000E+00
(PID.TID 0000.0001) // CMAX =          1.000000000000000E+00
(PID.TID 0000.0001) // CINT =          0.000000000000000E+00
(PID.TID 0000.0001) // SYMBOLS (CMIN->CMAX): -abcdefghijklmnopqrstuvwxyz+
(PID.TID 0000.0001) //                  0.0: .
(PID.TID 0000.0001) // RANGE I (Lo:Hi:Step):(  -1: 194:   1)
(PID.TID 0000.0001) // RANGE J (Lo:Hi:Step):(  34:  -1:  -1)
(PID.TID 0000.0001) // RANGE K (Lo:Hi:Step):(   1:   1:   1)
(PID.TID 0000.0001) // =======================================================
(PID.TID 0000.0001) K =   1
(PID.TID 0000.0001) //                I=8       I=18      I=28      I=34      I=44      I=54      I=64      I=70      I=80      I=90      I=96      I=106     I=116     I=126     I=132     I=142     I=152     I=162     I=168     I=178     I=188
(PID.TID 0000.0001) // |--J--|*01234567|901234567|901234567|901234123|567890123|567890123|567890123|563456789|123456789|123456789|123456785|789012345|789012345|789012345|789078901|345678901|345678901|345678901|901234567|901234567|901234567|901234
(PID.TID 0000.0001) //     34 ..----------------.........---....................................----....------------...............------...---------------------------------...-----------------........--------...---------------------------------.
(PID.TID 0000.0001) //     33 ..----------------........-.......................................----....-----------................------...---------------------------------...-----------------.........-------...---------------------------------.
(PID.TID 0000.0001) //     32 ------------------..............................................-...-...------------.................-------------------------------------------------------------..........--------------------------------------------
(PID.TID 0000.0001) //     31 ----------------...-----........................................----..-------------.................--------------------------------------------------------------...........-------------------------------------------
(PID.TID 0000.0001) //     30 ----------------..------------..................................--------------------................------------------------------------------------------------...............-----------------------------------------
(PID.TID 0000.0001) //     29 ------------------....--------...................................----------------.......-..........-------------------------------------------------------------................----------------------------------------
(PID.TID 0000.0001) //     28 ---------------..................................................-----------------......--.........-------------------------------------------------------------.................---.-----------------------------------
(PID.TID 0000.0001) //     27 ---------------...........................--.....................-------------------.....-.........------------------------------------------------------------..................---.-----------------------------------
(PID.TID 0000.0001) //     26 --------------............................---....................-------------------------.........-----------------------------------------------------------....................--..----------------------------------
(PID.TID 0000.0001) //     25 -------------...............................---.................----------------------..-..........-----------------------------------------------------------....................--..----------------------------------
(PID.TID 0000.0001) //     24 ------------................................----......-......-------------------------.............-----------------------------------------------------------.....................-...---------------------------------
(PID.TID 0000.0001) //     23 ------------....................-...-......-----.....--......----------------------...--...........---------------------------------------------..---------..-..........................--------------...---------------
(PID.TID 0000.0001) //     22 ------------.....................-...-...-------....----.....----------------------....--..-........--------------------------------------------...-----------...........-----...........------------.......------------
(PID.TID 0000.0001) //     21 ------------......................--..-----------...-----.....---------------------.....-------......-------------------------------------------....------..---........-----------..--.....---..----..........----------
(PID.TID 0000.0001) //     20 -------------............................--------..--------..-----------------------.......-----.....-------------------------------------------.......---..---..-....------------------------..----..........----------
(PID.TID 0000.0001) //     19 --------------...........................----------------..-------..-------------..-.......-----....--------------------------------------------..........----..-------------------------------...-...........----------
(PID.TID 0000.0001) //     18 .--------------------...................----------------...---...-------..---..-------...-------------------------------------------------------........-----..---------------------------------..............----------
(PID.TID 0000.0001) //     17 .--------------------..............-...------------------...-....-------..--...-------------------..--------------------------------------------........---...----------------------------------...............---------
(PID.TID 0000.0001) //     16 ...------------------.............--..--------------------..-...-----..--.....-------------------....-------------------------------------------.........--...----------------------------------...............---------
(PID.TID 0000.0001) //     15 .....-----------------...........---.----------------------..---------..-.....-...----..---------....--------------------------------------...--.........--..------------------------------------..............---------
(PID.TID 0000.0001) //     14 .......---------------...........---.------------------------..-----------...........-----------.....----------------------------------------.............-..------------------------------------..............---------
(PID.TID 0000.0001) //     13 ......-----------------..........---.------------------------------------............----------.......------------------------------------------.............-------------------------------------............----------
(PID.TID 0000.0001) //     12 ......----------------...........---.--------------------------------..---...........------..--.....-..-----------------------------------------............-------------------------------------------.......----------
(PID.TID 0000.0001) //     11 .....-----------------...........--..--..-------------------------.....--............----...........--------------------------------------------...........--------------------------------------------......-----------
(PID.TID 0000.0001) //     10 .....-----------------..........--..--...------------------------...................................--------------------------------------------.........-----------------------------------------------...-------------
(PID.TID 0000.0001) //      9 .....------------------........---..--..------------------------........---.........................--------------------------------------------........----------------------------------------------------------------
(PID.TID 0000.0001) //      8 ....-------------------........---..--..----------------------.............-..........................------------------------------------------.......-----------------------------------------------------------------
(PID.TID 0000.0001) //      7 ..---------------------........---..--..----------------------..............-..........................--------------------------------.......---.....------------------------------------------------------------------
(PID.TID 0000.0001) //      6 .----------------------.......--------------------------------..............-............................---.-------------------------.........-------------------------------------------------------------------------
(PID.TID 0000.0001) //      5 .-----------------------.....---------------------------------..............-..........................-..--..-----------------------..........-------------------------------------------------------------------------
(PID.TID 0000.0001) //      4 ------------------------....----------------------------------.........................................--..--..-----------------..--...........-------------------------------------------------------------------------
(PID.TID 0000.0001) //      3 ---------------------------------------------------------------------..................................---..--..---------------...-...........--------------------------------------------------------------------------
(PID.TID 0000.0001) //      2 ----------------------------------------------------------------------................................----..--..---------------..---..........--------------------------------------------------------------------------
(PID.TID 0000.0001) //      1 ------------------------------------------------------------------------..............................----..--..---------------..---..........----------------------------------------------------------..--------------
(PID.TID 0000.0001) //      0 ..---------------------------------...---------------------------------.............................-...-.......--------------..--...........--...---------------------------------...------------------..------....---.
(PID.TID 0000.0001) //     -1 ..---------------------------------...---------------------------------.............................----..-...-..------------------.........---...---------------------------------...-----------------..------.........
(PID.TID 0000.0001) // =======================================================
(PID.TID 0000.0001) // END OF FIELD                                          =
(PID.TID 0000.0001) // =======================================================
(PID.TID 0000.0001) 
(PID.TID 0000.0001) // =======================================================
(PID.TID 0000.0001) // Field hFacS at iteration          1
(PID.TID 0000.0001) // CMIN =          1.000000000000000E+00
(PID.TID 0000.0001) // CMAX =          1.000000000000000E+00
(PID.TID 0000.0001) // CINT =          0.000000000000000E+00
(PID.TID 0000.0001) // SYMBOLS (CMIN->CMAX): -abcdefghijklmnopqrstuvwxyz+
(PID.TID 0000.0001) //                  0.0: .
(PID.TID 0000.0001) // RANGE I (Lo:Hi:Step):(  -1: 194:   1)
(PID.TID 0000.0001) // RANGE J (Lo:Hi:Step):(  34:  -1:  -1)
(PID.TID 0000.0001) // RANGE K (Lo:Hi:Step):(   1:   1:   1)
(PID.TID 0000.0001) // =======================================================
(PID.TID 0000.0001) K =   1
(PID.TID 0000.0001) //                I=8       I=18      I=28      I=34      I=44      I=54      I=64      I=70      I=80      I=90      I=96      I=106     I=116     I=126     I=132     I=142     I=152     I=162     I=168     I=178     I=188
(PID.TID 0000.0001) // |--J--|*01234567|901234567|901234567|901234123|567890123|567890123|567890123|563456789|123456789|123456789|123456785|789012345|789012345|789012345|789078901|345678901|345678901|345678901|901234567|901234567|901234567|901234
(PID.TID 0000.0001) //     34 ..----------------........-......................................-----....-----------...............------....--------------------------------....-----------------........-------....--------------------------------..
(PID.TID 0000.0001) //     33 ------------------.......-.........................................--...------------................--------------------------------------------------------------.........---------------------------------------------
(PID.TID 0000.0001) //     32 ----------------....-.-..-.....................................--..-....-----------.................--------------------------------------------------------------..........--------------------------------------------
(PID.TID 0000.0001) //     31 ----------------..------.-.....................................-----.--------------................-------------------------------------------------------------..............------------------------------------------
(PID.TID 0000.0001) //     30 ----------------.-...---------..................................-----------------..................-------------------------------------------------------------...............-----------------------------------------
(PID.TID 0000.0001) //     29 ---------------........-........................................-----------------......--.........--------------------------------------------------------------................----------------------------------------
(PID.TID 0000.0001) //     28 ---------------.................................................------------------......--........-------------------------------------------------------------.................----------------------------------------
(PID.TID 0000.0001) //     27 --------------...........................---....................--------------------....--........------------------------------------------------------------...................---.-----------------------------------
(PID.TID 0000.0001) //     26 -------------..............................--...................----------------------.--.........------------------------------------------------------------...................---.-----------------------------------
(PID.TID 0000.0001) //     25 ------------...................-...........----................-----------------------............------------------------------------------------------------....................--..----------------------------------
(PID.TID 0000.0001) //     24 ------------...................-...........-----.....--.....-----------------------..-............----------------------------------------------.----------.--.....................-...---------------..----------------
(PID.TID 0000.0001) //     23 ------------....................-...-.....------....---.....-----------------------...--...........---------------------------------------------..---------.--...........-..............-------------......-------------
(PID.TID 0000.0001) //     22 ------------.....................-...-..--------...-----.....----------------------....--.--........--------------------------------------------...-------.---..........------............----.-----.........-----------
(PID.TID 0000.0001) //     21 ------------............................---------..------....----------------------.......-----.....--------------------------------------------......----.----.......------------..--....----.-----.........-----------
(PID.TID 0000.0001) //     20 -------------...........................---------.-------.-.------.--------------.--......------....--------------------------------------------.........-.---..--...-------------------------...--..........-----------
(PID.TID 0000.0001) //     19 --------------..........................----------------..----..--.-----.----.---.--......------...---------------------------------------------.........----..--------------------------------..............-----------
(PID.TID 0000.0001) //     18 ---------------------..............-...-----------------...--...--------.---..--------..----------.---------------------------------------------.......----...----------------------------------..............----------
(PID.TID 0000.0001) //     17 ..-------------------.............--..-------------------..--...-----.--......-------------------...--------------------------------------------........---..-----------------------------------..............----------
(PID.TID 0000.0001) //     16 ....-----------------............---.---------------------..-..------...-....--..-----.----------...---------------------------------------..---........---..-----------------------------------..............----------
(PID.TID 0000.0001) //     15 ......----------------..........---------------------------.-.--------..-...........--.---------....---------------------------------------....-.........--.-------------------------------------.............----------
(PID.TID 0000.0001) //     14 ......----------------..........-----------------------------.-----------...........-----------......----------------------------------------..-............-------------------------------------.............----------
(PID.TID 0000.0001) //     13 .....-----------------..........-------------------------------------.---...........-------.---.......------------------------------------------............--------------------------------------...........-----------
(PID.TID 0000.0001) //     12 .....-----------------..........---.---.--------------------------....---...........-----..........--.------------------------------------------...........--------------------------------------------......-----------
(PID.TID 0000.0001) //     11 ....------------------..........--..--..-------------------------..................................---------------------------------------------..........---------------------------------------------.....------------
(PID.TID 0000.0001) //     10 ....------------------.........---..--..------------------------...................................---------------------------------------------........------------------------------------------------..--------------
(PID.TID 0000.0001) //      9 ....-------------------.......----.---.-----------------------............-..........................-------------------------------------------.......-----------------------------------------------------------------
(PID.TID 0000.0001) //      8 ...--------------------.......----.---.-----------------------.............-..........................---------------------------------......---......------------------------------------------------------------------
(PID.TID 0000.0001) //      7 .----------------------.......----.---.-----------------------.............--.........................-.------------------------------........---....-------------------------------------------------------------------
(PID.TID 0000.0001) //      6 -----------------------......---------------------------------.............--.........................-..---.------------------------.........--------------------------------------------------------------------------
(PID.TID 0000.0001) //      5 ------------------------....----------------------------------........................................--..--..------------------.---..........--------------------------------------------------------------------------
(PID.TID 0000.0001) //      4 ------------------------...-----------------------------------........................................---..--..----------------..--...........--------------------------------------------------------------------------
(PID.TID 0000.0001) //      3 ---------------------------------------------------------------------.................................----.---.----------------..--..........---------------------------------------------------------------------------
(PID.TID 0000.0001) //      2 ----------------------------------------------------------------------...............................-----.---.----------------.----.........-----------------------------------------------------------.---------------
(PID.TID 0000.0001) //      1 ------------------------------------------------------------------------...............................--..--..---------------..--...........-----------------------------------------------------------.-------...----.
(PID.TID 0000.0001) //      0 ..--------------------------------....--------------------------------.............................--..-........--------------.---..........--....--------------------------------....-----------------..------.........
(PID.TID 0000.0001) //     -1 ..--------------------------------....--------------------------------.............................-----.-....-.-------------------........---....--------------------------------....-----------------.-------.........
(PID.TID 0000.0001) // =======================================================
(PID.TID 0000.0001) // END OF FIELD                                          =
(PID.TID 0000.0001) // =======================================================
(PID.TID 0000.0001) 
(PID.TID 0000.0001)  PACKAGES_BOOT: opening data.pkg
(PID.TID 0000.0001)  OPEN_COPY_DATA_FILE: opening file data.pkg
(PID.TID 0000.0001) // =======================================================
(PID.TID 0000.0001) // Parameter file "data.pkg"
(PID.TID 0000.0001) // =======================================================
(PID.TID 0000.0001) ># Packages
(PID.TID 0000.0001) > &PACKAGES
(PID.TID 0000.0001) > useGMRedi=.TRUE.,
(PID.TID 0000.0001) > useBulkforce=.TRUE.,
(PID.TID 0000.0001) > useThSIce=.TRUE.,
(PID.TID 0000.0001) > &
(PID.TID 0000.0001) 
(PID.TID 0000.0001)  PACKAGES_BOOT: finished reading data.pkg
(PID.TID 0000.0001)  GM_READPARMS: opening data.gmredi
(PID.TID 0000.0001)  OPEN_COPY_DATA_FILE: opening file data.gmredi
(PID.TID 0000.0001) // =======================================================
(PID.TID 0000.0001) // Parameter file "data.gmredi"
(PID.TID 0000.0001) // =======================================================
(PID.TID 0000.0001) ># GM+Redi package parameters:
(PID.TID 0000.0001) >
(PID.TID 0000.0001) >#-from MOM :
(PID.TID 0000.0001) ># GM_background_K: 	G & Mc.W  diffusion coefficient
(PID.TID 0000.0001) ># GM_maxSlope    :	max slope of isopycnals
(PID.TID 0000.0001) ># GM_Scrit       :	transition for scaling diffusion coefficient
(PID.TID 0000.0001) ># GM_Sd          :	half width scaling for diffusion coefficient
(PID.TID 0000.0001) ># GM_taper_scheme:	slope clipping or one of the tapering schemes
(PID.TID 0000.0001) ># GM_Kmin_horiz  :	horizontal diffusion minimum value
(PID.TID 0000.0001) >
(PID.TID 0000.0001) >#-Option parameters (needs to "define" options in GMREDI_OPTIONS.h")
(PID.TID 0000.0001) ># GM_isopycK     :	isopycnal diffusion coefficient (default=GM_background_K)
(PID.TID 0000.0001) ># GM_AdvForm     :	turn on GM Advective form       (default=Skew flux form)
(PID.TID 0000.0001) >
(PID.TID 0000.0001) > &GM_PARM01
(PID.TID 0000.0001) >  GM_background_K    = 800.,
(PID.TID 0000.0001) >  GM_taper_scheme    = 'gkw91',
(PID.TID 0000.0001) >  GM_maxSlope        = 1.e-2,
(PID.TID 0000.0001) >  GM_Kmin_horiz      = 50.,
(PID.TID 0000.0001) >  GM_Scrit           = 4.e-3,
(PID.TID 0000.0001) >  GM_Sd              = 1.e-3,
(PID.TID 0000.0001) ># GM_Visbeck_alpha   = 0.,
(PID.TID 0000.0001) ># GM_Visbeck_length  = 2.e+5,
(PID.TID 0000.0001) ># GM_Visbeck_depth   = 1.e+3,
(PID.TID 0000.0001) ># GM_Visbeck_maxval_K= 2.5e+3,
(PID.TID 0000.0001) > &end
(PID.TID 0000.0001) >
(PID.TID 0000.0001) >
(PID.TID 0000.0001) 
(PID.TID 0000.0001)  GM_READPARMS: finished reading data.gmredi
(PID.TID 0000.0001)  BULKF_READPARMS: opening data.blk
(PID.TID 0000.0001)  OPEN_COPY_DATA_FILE: opening file data.blk
(PID.TID 0000.0001) // =======================================================
(PID.TID 0000.0001) // Parameter file "data.blk"
(PID.TID 0000.0001) // =======================================================
(PID.TID 0000.0001) > &BULKF_CONST
(PID.TID 0000.0001) > Tf0kel = 273.15,
(PID.TID 0000.0001) > p0     = 1013.,
(PID.TID 0000.0001) > Rgas   = 287.,
(PID.TID 0000.0001) >#blk_taveFreq=1.,
(PID.TID 0000.0001) > &
(PID.TID 0000.0001) >
(PID.TID 0000.0001) > &BULKF_PARM01
(PID.TID 0000.0001) > RainFile=       'ncep_precip_cs.bin',
(PID.TID 0000.0001) > SolarFile=      'ncep_downsolar_cs.bin',
(PID.TID 0000.0001) > AirTempFile=    'ncep_tair_cs.bin',
(PID.TID 0000.0001) > AirhumidityFile='ncep_qair_cs.bin',
(PID.TID 0000.0001) > LongwaveFile=   'ncep_downlw_cs.bin',
(PID.TID 0000.0001) > UWindFile=      ' ',
(PID.TID 0000.0001) > VWindFile=      ' ',
(PID.TID 0000.0001) > WspeedFile=     'ncep_windspeed_cs.bin',
(PID.TID 0000.0001) > RunoffFile=     ' ',
(PID.TID 0000.0001) > QnetFile=       ' ',
(PID.TID 0000.0001) > EmPFile=        ' ',
(PID.TID 0000.0001) > CloudFile=      ' ',
(PID.TID 0000.0001) > &
(PID.TID 0000.0001) >
(PID.TID 0000.0001) > &BULKF_PARM02
(PID.TID 0000.0001) > qnet_off=0.0,
(PID.TID 0000.0001) > empmr_off=0.0,
(PID.TID 0000.0001) > conservcycle=311040000.,
(PID.TID 0000.0001) > &
(PID.TID 0000.0001) >
(PID.TID 0000.0001) 
(PID.TID 0000.0001)  BULKF_READPARMS: read BULKF_CONST
(PID.TID 0000.0001)  BULKF_READPARMS: read BULKF_PARM01
 BlkF: rhoa     =  1.3
 BlkF: rhofw    =  1000.
 BlkF: cpair    =  1004.
 BlkF: cpwv     =  1810.
 BlkF: Lvap     =  2500000.
 BlkF: Lfresh   =  334000.
 BlkF: Tf0kel   =  273.15
 BlkF: cdrag_1  =  0.0027
 BlkF: cdrag_2  =  0.000142
 BlkF: cdrag_3  =  7.64E-05
 BlkF: stefan   =  5.67E-08
 BlkF: xkar     =  0.4
 BlkF: Rvap     =  461.
 BlkF: p0       =  1013.
 BlkF: Qcoef    =  0.00375164857
 BlkF: humid_fac=  0.606
 BlkF: saltsat  =  0.98
 BlkF: gamma_blk=  0.01
 BlkF: Lvap_ice =  2830000.
 BlkF: Rgas     =  287.
 BlkF: Sha      =  1003.4965
 BlkF: atm_emissivity  =  0.9
 BlkF: ocean_emissivity=  0.985
 BlkF: snow_emissivity =  0.98
 BlkF: ice_emissivity  =  0.98
 BlkF: blk_taveFreq=  31104000.
(PID.TID 0000.0001)  THSICE_READPARMS: opening data.ice
(PID.TID 0000.0001)  OPEN_COPY_DATA_FILE: opening file data.ice
(PID.TID 0000.0001) // =======================================================
(PID.TID 0000.0001) // Parameter file "data.ice"
(PID.TID 0000.0001) // =======================================================
(PID.TID 0000.0001) > &THSICE_CONST
(PID.TID 0000.0001) > Tf0kel  = 273.15,
(PID.TID 0000.0001) >#- for full ice-fraction :
(PID.TID 0000.0001) >#icemaskmin = 1.,
(PID.TID 0000.0001) >#himin0     = 0.01,
(PID.TID 0000.0001) >#frac_energy= 0.,
(PID.TID 0000.0001) >#hihig      =100.,
(PID.TID 0000.0001) >#- with fractional ice:
(PID.TID 0000.0001) > icemaskmin = 0.05,
(PID.TID 0000.0001) > hiMax      = 10.,
(PID.TID 0000.0001) > hsMax      = 10.,
(PID.TID 0000.0001) > iceMaskmax = 0.90,
(PID.TID 0000.0001) > &
(PID.TID 0000.0001) >
(PID.TID 0000.0001) > &THSICE_PARM01
(PID.TID 0000.0001) > StartIceModel=1,
(PID.TID 0000.0001) > stressReduction=1.,
(PID.TID 0000.0001) >#thSIce_taveFreq=2592000.,
(PID.TID 0000.0001) >#thSIce_diagFreq=2592000.,
(PID.TID 0000.0001) >#thSIce_monFreq=864000.,
(PID.TID 0000.0001) > &
(PID.TID 0000.0001) >
(PID.TID 0000.0001) 
(PID.TID 0000.0001)  THSICE_READPARMS: read THSICE_CONST
(PID.TID 0000.0001)  THSICE_READPARMS: read THSICE_PARM01
 ThSI: rhos    =  330.
 ThSI: rhoi    =  900.
 ThSI: rhosw   =  1035.
 ThSI: rhofw   =  1000.
 ThSI: rhoiw   =  135.
 ThSI: cpice   =  2106.
 ThSI: cpwater =  3994.
 ThSI: kice    =  2.03
 ThSI: ksnow   =  0.3
 ThSI: transcoef=  0.006
 ThSI: Lfresh  =  334000.
 ThSI: qsnow   =  334000.
 ThSI: albsnodry=  0.85
 ThSI: albsnowet=  0.75
 ThSI: albicemax=  0.65
 ThSI: albicemin=  0.2
 ThSI: halb    =  0.5
 ThSI: i0      =  0.3
 ThSI: ksolar  =  1.5
 ThSI: saltice =  4.
 ThSI: S_winton=  1.
 ThSI: mu_Tf   =  0.054
 ThSI: Tf0kel  =  273.15
 ThSI: Tmlt1   = -0.054
 ThSI: himin   =  0.01
 ThSI: Terrmax =  0.5
 ThSI: nitMaxTsf= 20
 ThSI: hiMax   =  10.
 ThSI: hsMax   =  10.
 ThSI: iceMaskmax=  0.9
 ThSI: iceMaskmin=  0.05
 ThSI: himin0  =  0.2
 ThSI: frac_energy  0.4
 ThSI: hihig   =  2.5
 ThSI: stressReduction =  1.
 ThSI: thSIce_deltaT  =  86400.
 ThSI: thSIce_taveFreq=  31104000.
 ThSI: thSIce_diagFreq=  31104000.
 ThSI: thSIce_monFreq =  1.
 ThSI: startIceModel = 1
(PID.TID 0000.0001) 
(PID.TID 0000.0001) // ===================================
(PID.TID 0000.0001) // GAD parameters :
(PID.TID 0000.0001) // ===================================
(PID.TID 0000.0001) tempAdvScheme =   /* Temp. advection scheme selector */
(PID.TID 0000.0001)                       2
(PID.TID 0000.0001)     ;
(PID.TID 0000.0001) tempMultiDimAdvec =   /* use Muti-Dim Advec method for Temp */
(PID.TID 0000.0001)                   F
(PID.TID 0000.0001)     ;
(PID.TID 0000.0001) tempAdamsBashforth =   /* use Adams-Bashforth time-stepping for Temp */
(PID.TID 0000.0001)                   T
(PID.TID 0000.0001)     ;
(PID.TID 0000.0001) saltAdvScheme =   /* Salt. advection scheme selector */
(PID.TID 0000.0001)                       2
(PID.TID 0000.0001)     ;
(PID.TID 0000.0001) saltMultiDimAdvec =   /* use Muti-Dim Advec method for Salt */
(PID.TID 0000.0001)                   F
(PID.TID 0000.0001)     ;
(PID.TID 0000.0001) saltAdamsBashforth =   /* use Adams-Bashforth time-stepping for Salt */
(PID.TID 0000.0001)                   T
(PID.TID 0000.0001)     ;
(PID.TID 0000.0001) // ===================================
(PID.TID 0000.0001) GMREDI_CHECK: #define GMREDI
(PID.TID 0000.0001) GM_AdvForm =  /* if FALSE => use SkewFlux Form */
(PID.TID 0000.0001)                   F
(PID.TID 0000.0001)     ;
(PID.TID 0000.0001) GM_AdvSeparate = /* Calc Bolus & Euler Adv. separately */
(PID.TID 0000.0001)                   F
(PID.TID 0000.0001)     ;
(PID.TID 0000.0001) GM_ExtraDiag =  /* Tensor Extra Diag (line 1&2) non 0 */
(PID.TID 0000.0001)                   F
(PID.TID 0000.0001)     ;
(PID.TID 0000.0001) GM_isopycK =   /* Background Isopyc. Diffusivity ( m^2/s ) */
(PID.TID 0000.0001)                 8.000000000000000E+02
(PID.TID 0000.0001)     ;
(PID.TID 0000.0001)  GM_skewflx*K =   /* Background GM_SkewFlx Diffusivity ( m^2/s ) */
(PID.TID 0000.0001)                 8.000000000000000E+02
(PID.TID 0000.0001)     ;
(PID.TID 0000.0001)  GM_advec*K =   /* Backg. GM-Advec(=Bolus) Diffusivity ( m^2/s ) */
(PID.TID 0000.0001)                 0.000000000000000E+00
(PID.TID 0000.0001)     ;
(PID.TID 0000.0001)  GM_Visbeck_alpha =   /* Visbeck alpha coeff. ( ) */
(PID.TID 0000.0001)                 0.000000000000000E+00
(PID.TID 0000.0001)     ;
(PID.TID 0000.0001)  Tapering/Cliping : gkw91
(PID.TID 0000.0001)  GM_Small_Number =  /* epsilon used in slope calc */
(PID.TID 0000.0001)                 1.000000000000000E-12
(PID.TID 0000.0001)     ;
(PID.TID 0000.0001)  GM_slopeSqCutoff =  /* Slope^2 cut-off value */
(PID.TID 0000.0001)                 1.000000000000000E+48
(PID.TID 0000.0001)     ;
(PID.TID 0000.0001) // CG2D normalisation factor =          0.1915656415494955346241757E-03
(PID.TID 0000.0001) 
 ini_cg2d: sumArea,cg2dTolerance =  3.63886737508162E+14  5.80901636017533E-07
(PID.TID 0000.0001) CONFIG_CHECK: OK
(PID.TID 0000.0001) // =======================================================
(PID.TID 0000.0001) // Model configuration
(PID.TID 0000.0001) // =======================================================
(PID.TID 0000.0001) //
(PID.TID 0000.0001) // "Physical" paramters ( PARM01 in namelist )
(PID.TID 0000.0001) //
(PID.TID 0000.0001) buoyancyRelation = OCEANIC
(PID.TID 0000.0001) tRef =   /* Reference temperature profile ( oC or oK ) */
(PID.TID 0000.0001)    15 @  2.000000000000000E+01              /* K =  1: 15 */
(PID.TID 0000.0001)     ;
(PID.TID 0000.0001) sRef =   /* Reference salinity profile ( ppt ) */
(PID.TID 0000.0001)    15 @  3.500000000000000E+01              /* K =  1: 15 */
(PID.TID 0000.0001)     ;
(PID.TID 0000.0001) viscAh =   /* Lateral eddy viscosity ( m^2/s ) */
(PID.TID 0000.0001)                 3.000000000000000E+05
(PID.TID 0000.0001)     ;
(PID.TID 0000.0001) viscAh =   /* Lateral biharmonic viscosity ( m^4/s ) */
(PID.TID 0000.0001)                 0.000000000000000E+00
(PID.TID 0000.0001)     ;
(PID.TID 0000.0001) no_slip_sides =  /* Viscous BCs: No-slip sides */
(PID.TID 0000.0001)                   T
(PID.TID 0000.0001)     ;
(PID.TID 0000.0001) viscAr =   /* Vertical eddy viscosity ( units of r^2/s ) */
(PID.TID 0000.0001)                 1.000000000000000E-03
(PID.TID 0000.0001)     ;
(PID.TID 0000.0001) diffKhT =   /* Laplacian diffusion of heat laterally ( m^2/s ) */
(PID.TID 0000.0001)                 0.000000000000000E+00
(PID.TID 0000.0001)     ;
(PID.TID 0000.0001) diffK4T =   /* Bihaarmonic diffusion of heat laterally ( m^4/s ) */
(PID.TID 0000.0001)                 0.000000000000000E+00
(PID.TID 0000.0001)     ;
(PID.TID 0000.0001) diffKrT =   /* Laplacian diffusion of heat vertically ( m^2/s ) */
(PID.TID 0000.0001)                 3.000000000000000E-05
(PID.TID 0000.0001)     ;
(PID.TID 0000.0001) diffKhS =   /* Laplacian diffusion of salt laterally ( m^2/s ) */
(PID.TID 0000.0001)                 0.000000000000000E+00
(PID.TID 0000.0001)     ;
(PID.TID 0000.0001) diffK4S =   /* Bihaarmonic diffusion of salt laterally ( m^4/s ) */
(PID.TID 0000.0001)                 0.000000000000000E+00
(PID.TID 0000.0001)     ;
(PID.TID 0000.0001) diffKrS =   /* Laplacian diffusion of salt vertically ( m^2/s ) */
(PID.TID 0000.0001)                 3.000000000000000E-05
(PID.TID 0000.0001)     ;
(PID.TID 0000.0001)  Equation of State : eosType = JMD95Z
(PID.TID 0000.0001) tAlpha =   /* Linear EOS thermal expansion coefficient ( 1/degree ) */
(PID.TID 0000.0001)                 1.234567000000000E+05
(PID.TID 0000.0001)     ;
(PID.TID 0000.0001) sBeta =   /* Linear EOS haline contraction coefficient ( 1/ppt ) */
(PID.TID 0000.0001)                 1.234567000000000E+05
(PID.TID 0000.0001)     ;
(PID.TID 0000.0001) rhonil =   /* Reference density ( kg/m^3 ) */
(PID.TID 0000.0001)                 1.035000000000000E+03
(PID.TID 0000.0001)     ;
(PID.TID 0000.0001) rhoConst =   /* Reference density ( kg/m^3 ) */
(PID.TID 0000.0001)                 1.035000000000000E+03
(PID.TID 0000.0001)     ;
(PID.TID 0000.0001) rhoConstFresh =   /* Reference density ( kg/m^3 ) */
(PID.TID 0000.0001)                 1.000000000000000E+03
(PID.TID 0000.0001)     ;
(PID.TID 0000.0001) gravity =   /* Gravitational acceleration ( m/s^2 ) */
(PID.TID 0000.0001)                 9.810000000000000E+00
(PID.TID 0000.0001)     ;
(PID.TID 0000.0001) gBaro =   /* Barotropic gravity ( m/s^2 ) */
(PID.TID 0000.0001)                 9.810000000000000E+00
(PID.TID 0000.0001)     ;
(PID.TID 0000.0001) rotationPeriod =   /* Rotation Period ( s ) */
(PID.TID 0000.0001)                 8.640000000000000E+04
(PID.TID 0000.0001)     ;
(PID.TID 0000.0001) omega =   /* Angular velocity ( rad/s ) */
(PID.TID 0000.0001)                 7.272205216643040E-05
(PID.TID 0000.0001)     ;
(PID.TID 0000.0001) f0 =   /* Reference coriolis parameter ( 1/s ) */
(PID.TID 0000.0001)                 1.000000000000000E-04
(PID.TID 0000.0001)     ;
(PID.TID 0000.0001) beta =   /* Beta ( 1/(m.s) ) */
(PID.TID 0000.0001)                 9.999999999999999E-12
(PID.TID 0000.0001)     ;
(PID.TID 0000.0001) freeSurfFac =   /* Implicit free surface factor */
(PID.TID 0000.0001)                 1.000000000000000E+00
(PID.TID 0000.0001)     ;
(PID.TID 0000.0001) implicitFreeSurface =   /* Implicit free surface on/off flag */
(PID.TID 0000.0001)                   T
(PID.TID 0000.0001)     ;
(PID.TID 0000.0001) rigidLid =   /* Rigid lid on/off flag */
(PID.TID 0000.0001)                   F
(PID.TID 0000.0001)     ;
(PID.TID 0000.0001) implicSurfPress =   /* Surface Pressure implicit factor (0-1)*/
(PID.TID 0000.0001)                 1.000000000000000E+00
(PID.TID 0000.0001)     ;
(PID.TID 0000.0001) implicDiv2Dflow =   /* Barot. Flow Div. implicit factor (0-1)*/
(PID.TID 0000.0001)                 1.000000000000000E+00
(PID.TID 0000.0001)     ;
(PID.TID 0000.0001) exactConserv =   /* Exact Volume Conservation on/off flag*/
(PID.TID 0000.0001)                   T
[...]
(PID.TID 0000.0001) %MON thSI_Tic1_min_N              =  -2.5682051169306E+01
(PID.TID 0000.0001) %MON thSI_Tic1_max_S              =  -2.2961347170444E+00
(PID.TID 0000.0001) %MON thSI_Tic1_max_N              =  -1.7225741153363E+00
(PID.TID 0000.0001) %MON thSI_Tic2_ave_G              =  -6.9317215212347E+00
(PID.TID 0000.0001) %MON thSI_Tic2_ave_S              =  -1.9745662453172E+00
(PID.TID 0000.0001) %MON thSI_Tic2_ave_N              =  -6.9324189629155E+00
(PID.TID 0000.0001) %MON thSI_Tic2_min_S              =  -1.9745662453172E+00
(PID.TID 0000.0001) %MON thSI_Tic2_min_N              =  -9.4443194553403E+00
(PID.TID 0000.0001) %MON thSI_Tic2_max_S              =  -1.9745662453172E+00
(PID.TID 0000.0001) %MON thSI_Tic2_max_N              =  -1.7225741153363E+00
(PID.TID 0000.0001) // =======================================================
(PID.TID 0000.0001) // End MONITOR Therm.SeaIce statistics
(PID.TID 0000.0001) // =======================================================
 cg2d: Sum(rhs),rhsMax =  -3.45957706926470E-10  4.21926836760089E+00
(PID.TID 0000.0001)                    cg2d_init_res =    1.73221773891336E-01
(PID.TID 0000.0001)                       cg2d_iters =    63
(PID.TID 0000.0001)                         cg2d_res =    5.13883066097836E-07
(PID.TID 0000.0001) // =======================================================
(PID.TID 0000.0001) // Begin MONITOR dynamic field statistics
(PID.TID 0000.0001) // =======================================================
(PID.TID 0000.0001) %MON time_tsnumber                =                 72020
(PID.TID 0000.0001) %MON time_secondsf                =   6.2225280000000E+09
(PID.TID 0000.0001) %MON dynstat_eta_max              =   8.9364900362720E-01
(PID.TID 0000.0001) %MON dynstat_eta_min              =  -1.6018750854736E+00
(PID.TID 0000.0001) %MON dynstat_eta_mean             =   5.1504812875622E-13
(PID.TID 0000.0001) %MON dynstat_eta_sd               =   5.9319586890871E-01
(PID.TID 0000.0001) %MON dynstat_eta_del2             =   1.0977141264945E-02
(PID.TID 0000.0001) %MON dynstat_uvel_max             =   1.8536239979083E-01
(PID.TID 0000.0001) %MON dynstat_uvel_min             =  -2.7956002496133E-01
(PID.TID 0000.0001) %MON dynstat_uvel_mean            =  -4.8536303064195E-04
(PID.TID 0000.0001) %MON dynstat_uvel_sd              =   1.2091789393157E-02
(PID.TID 0000.0001) %MON dynstat_uvel_del2            =   1.5696569547534E-03
(PID.TID 0000.0001) %MON dynstat_vvel_max             =   1.7325115445163E-01
(PID.TID 0000.0001) %MON dynstat_vvel_min             =  -2.2318259874678E-01
(PID.TID 0000.0001) %MON dynstat_vvel_mean            =  -4.1292047964268E-04
(PID.TID 0000.0001) %MON dynstat_vvel_sd              =   1.2720154670880E-02
(PID.TID 0000.0001) %MON dynstat_vvel_del2            =   1.5918612384179E-03
(PID.TID 0000.0001) %MON dynstat_wvel_max             =   1.1114918615948E-04
(PID.TID 0000.0001) %MON dynstat_wvel_min             =  -2.0155362675014E-04
(PID.TID 0000.0001) %MON dynstat_wvel_mean            =   6.5302006049956E-23
(PID.TID 0000.0001) %MON dynstat_wvel_sd              =   3.8783569150500E-06
(PID.TID 0000.0001) %MON dynstat_wvel_del2            =   8.8122355768700E-07
(PID.TID 0000.0001) %MON dynstat_theta_max            =   2.9929091212573E+01
(PID.TID 0000.0001) %MON dynstat_theta_min            =  -2.4469045211409E+00
(PID.TID 0000.0001) %MON dynstat_theta_mean           =   3.9275862476912E+00
(PID.TID 0000.0001) %MON dynstat_theta_sd             =   4.5649765374573E+00
(PID.TID 0000.0001) %MON dynstat_theta_del2           =   8.5759570753774E-02
(PID.TID 0000.0001) %MON dynstat_salt_max             =   4.1452173066765E+01
(PID.TID 0000.0001) %MON dynstat_salt_min             =   1.8436552551157E+01
(PID.TID 0000.0001) %MON dynstat_salt_mean            =   3.4775783614691E+01
(PID.TID 0000.0001) %MON dynstat_salt_sd              =   5.3286249412498E-01
(PID.TID 0000.0001) %MON dynstat_salt_del2            =   1.8727903275922E-02
(PID.TID 0000.0001) %MON advcfl_uvel_max              =   7.9288525965508E-02
(PID.TID 0000.0001) %MON advcfl_vvel_max              =   7.5517737426093E-02
(PID.TID 0000.0001) %MON advcfl_wvel_max              =   6.5714088117781E-02
(PID.TID 0000.0001) %MON advcfl_W_hf_max              =   1.1193975216776E-01
(PID.TID 0000.0001) %MON pe_b_mean                    =   4.6877096969781E-04
(PID.TID 0000.0001) %MON ke_max                       =   3.8095760978061E-02
(PID.TID 0000.0001) %MON ke_mean                      =   1.4242235421549E-04
(PID.TID 0000.0001) %MON ke_vol                       =   1.3398024453628E+18
(PID.TID 0000.0001) %MON vort_r_min                   =  -1.2871687275707E-06
(PID.TID 0000.0001) %MON vort_r_max                   =   1.2643446056190E-06
(PID.TID 0000.0001) %MON vort_a_mean                  =  -2.0491686651136E-05
(PID.TID 0000.0001) %MON vort_a_sd                    =   7.5056306436435E-05
(PID.TID 0000.0001) %MON vort_p_mean                  =  -2.4712552495290E-05
(PID.TID 0000.0001) %MON vort_p_sd                    =   1.2774954527786E-04
(PID.TID 0000.0001) %MON surfExpan_theta_mean         =  -3.3256283398192E-09
(PID.TID 0000.0001) %MON surfExpan_salt_mean          =   2.1018358631125E-09
(PID.TID 0000.0001) // =======================================================
(PID.TID 0000.0001) // End MONITOR dynamic field statistics
(PID.TID 0000.0001) // =======================================================
(PID.TID 0000.0001) // =======================================================
(PID.TID 0000.0001) // Begin MONITOR Therm.SeaIce statistics
(PID.TID 0000.0001) // =======================================================
(PID.TID 0000.0001) %MON thSI_time_sec                =   6.2225280000000E+09
(PID.TID 0000.0001) %MON thSI_Ice_Area_G              =   1.0575038988642E+13
(PID.TID 0000.0001) %MON thSI_Ice_Area_S              =   1.4024534710326E+10
(PID.TID 0000.0001) %MON thSI_Ice_Area_N              =   1.0561014453931E+13
(PID.TID 0000.0001) %MON thSI_IceH_ave_G              =   1.0990654628873E+00
(PID.TID 0000.0001) %MON thSI_IceH_ave_S              =   9.0713466001921E-02
(PID.TID 0000.0001) %MON thSI_IceH_ave_N              =   1.1004045073174E+00
(PID.TID 0000.0001) %MON thSI_IceH_max_S              =   9.0713466001921E-02
(PID.TID 0000.0001) %MON thSI_IceH_max_N              =   1.9410555784450E+00
(PID.TID 0000.0001) %MON thSI_SnwH_ave_G              =   3.1897698966415E-02
(PID.TID 0000.0001) %MON thSI_SnwH_ave_S              =   3.7110054273513E-02
(PID.TID 0000.0001) %MON thSI_SnwH_ave_N              =   3.1890777201631E-02
(PID.TID 0000.0001) %MON thSI_SnwH_max_S              =   3.7110054273513E-02
(PID.TID 0000.0001) %MON thSI_SnwH_max_N              =   2.0288927738745E-01
(PID.TID 0000.0001) %MON thSI_TotEnerg_G              =  -3.7993118279146E+21
(PID.TID 0000.0001) %MON thSI_Tsrf_ave_G              =  -2.7613867980977E+01
(PID.TID 0000.0001) %MON thSI_Tsrf_ave_S              =  -4.3087239897579E+00
(PID.TID 0000.0001) %MON thSI_Tsrf_ave_N              =  -2.7644816125425E+01
(PID.TID 0000.0001) %MON thSI_Tsrf_min_S              =  -4.3087239897579E+00
(PID.TID 0000.0001) %MON thSI_Tsrf_min_N              =  -3.6077367179792E+01
(PID.TID 0000.0001) %MON thSI_Tsrf_max_S              =  -4.3087239897579E+00
(PID.TID 0000.0001) %MON thSI_Tsrf_max_N              =  -9.4347249598032E+00
(PID.TID 0000.0001) %MON thSI_Tic1_ave_G              =  -1.8500401687884E+01
(PID.TID 0000.0001) %MON thSI_Tic1_ave_S              =  -2.3121666390705E+00
(PID.TID 0000.0001) %MON thSI_Tic1_ave_N              =  -1.8502173842975E+01
(PID.TID 0000.0001) %MON thSI_Tic1_min_S              =  -2.3121666390705E+00
(PID.TID 0000.0001) %MON thSI_Tic1_min_N              =  -2.5727149781830E+01
(PID.TID 0000.0001) %MON thSI_Tic1_max_S              =  -2.3121666390705E+00
(PID.TID 0000.0001) %MON thSI_Tic1_max_N              =  -6.1042591197128E+00
(PID.TID 0000.0001) %MON thSI_Tic2_ave_G              =  -6.9183467729664E+00
(PID.TID 0000.0001) %MON thSI_Tic2_ave_S              =  -1.9802201041162E+00
(PID.TID 0000.0001) %MON thSI_Tic2_ave_N              =  -6.9188873585389E+00
(PID.TID 0000.0001) %MON thSI_Tic2_min_S              =  -1.9802201041162E+00
(PID.TID 0000.0001) %MON thSI_Tic2_min_N              =  -9.4218953931093E+00
(PID.TID 0000.0001) %MON thSI_Tic2_max_S              =  -1.9802201041162E+00
(PID.TID 0000.0001) %MON thSI_Tic2_max_N              =  -3.2027038145013E+00
(PID.TID 0000.0001) // =======================================================
(PID.TID 0000.0001) // End MONITOR Therm.SeaIce statistics
(PID.TID 0000.0001) // =======================================================
(PID.TID 0000.0001) %CHECKPOINT     72020 ckptA
(PID.TID 0000.0001)   Seconds in section "ALL                    [THE_MODEL_MAIN]":
(PID.TID 0000.0001)           User time:  38.2200012
(PID.TID 0000.0001)         System time:  0.389999986
(PID.TID 0000.0001)     Wall clock time:  39.184251
(PID.TID 0000.0001)          No. starts: 1
(PID.TID 0000.0001)           No. stops: 1
(PID.TID 0000.0001)   Seconds in section "INITIALISE_FIXED       [THE_MODEL_MAIN]":
(PID.TID 0000.0001)           User time:  0.360000014
(PID.TID 0000.0001)         System time:  0.0299999993
(PID.TID 0000.0001)     Wall clock time:  0.382947922
(PID.TID 0000.0001)          No. starts: 1
(PID.TID 0000.0001)           No. stops: 1
(PID.TID 0000.0001)   Seconds in section "THE_MAIN_LOOP          [THE_MODEL_MAIN]":
(PID.TID 0000.0001)           User time:  37.5599982
(PID.TID 0000.0001)         System time:  0.259999992
(PID.TID 0000.0001)     Wall clock time:  38.4049821
(PID.TID 0000.0001)          No. starts: 1
(PID.TID 0000.0001)           No. stops: 1
(PID.TID 0000.0001)   Seconds in section "INITIALISE_VARIA    [THE_MAIN_LOOP]":
(PID.TID 0000.0001)           User time:  0.430000007
(PID.TID 0000.0001)         System time:  0.0999999959
(PID.TID 0000.0001)     Wall clock time:  0.630639076
(PID.TID 0000.0001)          No. starts: 1
(PID.TID 0000.0001)           No. stops: 1
(PID.TID 0000.0001)   Seconds in section "MONITOR             [THE_MAIN_LOOP]":
(PID.TID 0000.0001)           User time:  0.189999998
(PID.TID 0000.0001)         System time:  0.
(PID.TID 0000.0001)     Wall clock time:  0.232735991
(PID.TID 0000.0001)          No. starts: 1
(PID.TID 0000.0001)           No. stops: 1
(PID.TID 0000.0001)   Seconds in section "DO_THE_MODEL_IO     [THE_MAIN_LOOP]":
(PID.TID 0000.0001)           User time:  0.0699999332
(PID.TID 0000.0001)         System time:  0.0700000077
(PID.TID 0000.0001)     Wall clock time:  0.563308001
(PID.TID 0000.0001)          No. starts: 1
(PID.TID 0000.0001)           No. stops: 1
(PID.TID 0000.0001)   Seconds in section "MAIN LOOP           [THE_MAIN_LOOP]":
(PID.TID 0000.0001)           User time:  36.8699982
(PID.TID 0000.0001)         System time:  0.0899999887
(PID.TID 0000.0001)     Wall clock time:  36.9781859
(PID.TID 0000.0001)          No. starts: 1
(PID.TID 0000.0001)           No. stops: 1
(PID.TID 0000.0001)   Seconds in section "FORWARD_STEP        [THE_MAIN_LOOP]":
(PID.TID 0000.0001)           User time:  36.8699982
(PID.TID 0000.0001)         System time:  0.0899999887
(PID.TID 0000.0001)     Wall clock time:  36.9777484
(PID.TID 0000.0001)          No. starts: 20
(PID.TID 0000.0001)           No. stops: 20
(PID.TID 0000.0001)   Seconds in section "UPDATE_ETAH        [FORWARD_STEP]":
(PID.TID 0000.0001)           User time:  0.
(PID.TID 0000.0001)         System time:  0.
(PID.TID 0000.0001)     Wall clock time:  0.00425612926
(PID.TID 0000.0001)          No. starts: 20
(PID.TID 0000.0001)           No. stops: 20
(PID.TID 0000.0001)   Seconds in section "BULKF_FORCING      [FORWARD_STEP]":
(PID.TID 0000.0001)           User time:  0.990006566
(PID.TID 0000.0001)         System time:  0.00999999046
(PID.TID 0000.0001)     Wall clock time:  0.987748146
(PID.TID 0000.0001)          No. starts: 20
(PID.TID 0000.0001)           No. stops: 20
(PID.TID 0000.0001)   Seconds in section "THSICE_MAIN        [FORWARD_STEP]":
(PID.TID 0000.0001)           User time:  0.160000563
(PID.TID 0000.0001)         System time:  0.
(PID.TID 0000.0001)     Wall clock time:  0.164142013
(PID.TID 0000.0001)          No. starts: 20
(PID.TID 0000.0001)           No. stops: 20
(PID.TID 0000.0001)   Seconds in section "THERMODYNAMICS      [FORWARD_STEP]":
(PID.TID 0000.0001)           User time:  14.0799963
(PID.TID 0000.0001)         System time:  0.0100000054
(PID.TID 0000.0001)     Wall clock time:  14.0934018
(PID.TID 0000.0001)          No. starts: 20
(PID.TID 0000.0001)           No. stops: 20
(PID.TID 0000.0001)   Seconds in section "BLOCKING_EXCHANGES  [FORWARD_STEP]":
(PID.TID 0000.0001)           User time:  0.119991064
(PID.TID 0000.0001)         System time:  0.
(PID.TID 0000.0001)     Wall clock time:  0.14475584
(PID.TID 0000.0001)          No. starts: 40
(PID.TID 0000.0001)           No. stops: 40
(PID.TID 0000.0001)   Seconds in section "DYNAMICS            [FORWARD_STEP]":
(PID.TID 0000.0001)           User time:  10.5500034
(PID.TID 0000.0001)         System time:  0.
(PID.TID 0000.0001)     Wall clock time:  10.569209
(PID.TID 0000.0001)          No. starts: 20
(PID.TID 0000.0001)           No. stops: 20
(PID.TID 0000.0001)   Seconds in section "SOLVE_FOR_PRESSURE  [FORWARD_STEP]":
(PID.TID 0000.0001)           User time:  4.70999694
(PID.TID 0000.0001)         System time:  0.
(PID.TID 0000.0001)     Wall clock time:  4.6973002
(PID.TID 0000.0001)          No. starts: 20
(PID.TID 0000.0001)           No. stops: 20
(PID.TID 0000.0001)   Seconds in section "THE_CORRECTION_STEP [FORWARD_STEP]":
(PID.TID 0000.0001)           User time:  2.38000369
(PID.TID 0000.0001)         System time:  0.
(PID.TID 0000.0001)     Wall clock time:  2.37846494
(PID.TID 0000.0001)          No. starts: 20
(PID.TID 0000.0001)           No. stops: 20
(PID.TID 0000.0001)   Seconds in section "MONITOR             [FORWARD_STEP]":
(PID.TID 0000.0001)           User time:  3.7299993
(PID.TID 0000.0001)         System time:  0.
(PID.TID 0000.0001)     Wall clock time:  3.6968801
(PID.TID 0000.0001)          No. starts: 20
(PID.TID 0000.0001)           No. stops: 20
(PID.TID 0000.0001)   Seconds in section "DO_THE_MODEL_IO     [FORWARD_STEP]":
(PID.TID 0000.0001)           User time:  0.139998198
(PID.TID 0000.0001)         System time:  0.0699999928
(PID.TID 0000.0001)     Wall clock time:  0.235499144
(PID.TID 0000.0001)          No. starts: 20
(PID.TID 0000.0001)           No. stops: 20
(PID.TID 0000.0001)   Seconds in section "WRITE_CHECKPOINT    [FORWARD_STEP]":
(PID.TID 0000.0001)           User time:  0.
(PID.TID 0000.0001)         System time:  0.
(PID.TID 0000.0001)     Wall clock time:  0.000438690186
(PID.TID 0000.0001)          No. starts: 20
(PID.TID 0000.0001)           No. stops: 20
(PID.TID 0000.0001)   Seconds in section "WRITE_CHECKPOINT       [THE_MODEL_MAIN]":
(PID.TID 0000.0001)           User time:  0.300003052
(PID.TID 0000.0001)         System time:  0.099999994
(PID.TID 0000.0001)     Wall clock time:  0.396218061
(PID.TID 0000.0001)          No. starts: 1
(PID.TID 0000.0001)           No. stops: 1
(PID.TID 0000.0001) // ======================================================
(PID.TID 0000.0001) // Tile <-> Tile communication statistics
(PID.TID 0000.0001) // ======================================================
(PID.TID 0000.0001) // o Tile number: 000001
(PID.TID 0000.0001) //         No. X exchanges =              0
(PID.TID 0000.0001) //            Max. X spins =              0
(PID.TID 0000.0001) //            Min. X spins =     1000000000
(PID.TID 0000.0001) //          Total. X spins =              0
(PID.TID 0000.0001) //            Avg. X spins =       0.00E+00
(PID.TID 0000.0001) //         No. Y exchanges =              0
(PID.TID 0000.0001) //            Max. Y spins =              0
(PID.TID 0000.0001) //            Min. Y spins =     1000000000
(PID.TID 0000.0001) //          Total. Y spins =              0
(PID.TID 0000.0001) //            Avg. Y spins =       0.00E+00
(PID.TID 0000.0001) // o Tile number: 000002
(PID.TID 0000.0001) //         No. X exchanges =              0
(PID.TID 0000.0001) //            Max. X spins =              0
(PID.TID 0000.0001) //            Min. X spins =     1000000000
(PID.TID 0000.0001) //          Total. X spins =              0
(PID.TID 0000.0001) //            Avg. X spins =       0.00E+00
(PID.TID 0000.0001) //         No. Y exchanges =              0
(PID.TID 0000.0001) //            Max. Y spins =              0
(PID.TID 0000.0001) //            Min. Y spins =     1000000000
(PID.TID 0000.0001) //          Total. Y spins =              0
(PID.TID 0000.0001) //            Avg. Y spins =       0.00E+00
(PID.TID 0000.0001) // o Tile number: 000003
(PID.TID 0000.0001) //         No. X exchanges =              0
(PID.TID 0000.0001) //            Max. X spins =              0
(PID.TID 0000.0001) //            Min. X spins =     1000000000
(PID.TID 0000.0001) //          Total. X spins =              0
(PID.TID 0000.0001) //            Avg. X spins =       0.00E+00
(PID.TID 0000.0001) //         No. Y exchanges =              0
(PID.TID 0000.0001) //            Max. Y spins =              0
(PID.TID 0000.0001) //            Min. Y spins =     1000000000
(PID.TID 0000.0001) //          Total. Y spins =              0
(PID.TID 0000.0001) //            Avg. Y spins =       0.00E+00
(PID.TID 0000.0001) // o Tile number: 000004
(PID.TID 0000.0001) //         No. X exchanges =              0
(PID.TID 0000.0001) //            Max. X spins =              0
(PID.TID 0000.0001) //            Min. X spins =     1000000000
(PID.TID 0000.0001) //          Total. X spins =              0
(PID.TID 0000.0001) //            Avg. X spins =       0.00E+00
(PID.TID 0000.0001) //         No. Y exchanges =              0
(PID.TID 0000.0001) //            Max. Y spins =              0
(PID.TID 0000.0001) //            Min. Y spins =     1000000000
(PID.TID 0000.0001) //          Total. Y spins =              0
(PID.TID 0000.0001) //            Avg. Y spins =       0.00E+00
(PID.TID 0000.0001) // o Tile number: 000005
(PID.TID 0000.0001) //         No. X exchanges =              0
(PID.TID 0000.0001) //            Max. X spins =              0
(PID.TID 0000.0001) //            Min. X spins =     1000000000
(PID.TID 0000.0001) //          Total. X spins =              0
(PID.TID 0000.0001) //            Avg. X spins =       0.00E+00
(PID.TID 0000.0001) //         No. Y exchanges =              0
(PID.TID 0000.0001) //            Max. Y spins =              0
(PID.TID 0000.0001) //            Min. Y spins =     1000000000
(PID.TID 0000.0001) //          Total. Y spins =              0
(PID.TID 0000.0001) //            Avg. Y spins =       0.00E+00
(PID.TID 0000.0001) // o Tile number: 000006
(PID.TID 0000.0001) //         No. X exchanges =              0
(PID.TID 0000.0001) //            Max. X spins =              0
(PID.TID 0000.0001) //            Min. X spins =     1000000000
(PID.TID 0000.0001) //          Total. X spins =              0
(PID.TID 0000.0001) //            Avg. X spins =       0.00E+00
(PID.TID 0000.0001) //         No. Y exchanges =              0
(PID.TID 0000.0001) //            Max. Y spins =              0
(PID.TID 0000.0001) //            Min. Y spins =     1000000000
(PID.TID 0000.0001) //          Total. Y spins =              0
(PID.TID 0000.0001) //            Avg. Y spins =       0.00E+00
(PID.TID 0000.0001) // o Thread number: 000001
(PID.TID 0000.0001) //            No. barriers =          33382
(PID.TID 0000.0001) //      Max. barrier spins =              1
(PID.TID 0000.0001) //      Min. barrier spins =              1
(PID.TID 0000.0001) //     Total barrier spins =          33382
(PID.TID 0000.0001) //      Avg. barrier spins =       1.00E+00
