(PID.TID 0000.0001) 
(PID.TID 0000.0001) // ======================================================
(PID.TID 0000.0001) //                      MITgcm UV
(PID.TID 0000.0001) //                      =========
(PID.TID 0000.0001) // ======================================================
(PID.TID 0000.0001) // execution environment starting up...
(PID.TID 0000.0001) 
(PID.TID 0000.0001) // MITgcmUV version:  checkpoint59d
(PID.TID 0000.0001) // Build user:        heimbach
(PID.TID 0000.0001) // Build host:        faulks
(PID.TID 0000.0001) // Build date:        Tue Jun 26 11:55:53 EDT 2007
(PID.TID 0000.0001) 
(PID.TID 0000.0001) // =======================================================
(PID.TID 0000.0001) // Execution Environment parameter file "eedata"
(PID.TID 0000.0001) // =======================================================
(PID.TID 0000.0001) ># Example "eedata" file
(PID.TID 0000.0001) ># Lines beginning "#" are comments
(PID.TID 0000.0001) ># nTx - No. threads per process in X
(PID.TID 0000.0001) ># nTy - No. threads per process in Y
(PID.TID 0000.0001) > &EEPARMS
(PID.TID 0000.0001) > nTx=1,
(PID.TID 0000.0001) > nTy=1,
(PID.TID 0000.0001) > /
(PID.TID 0000.0001) ># Note: Some systems use & as the
(PID.TID 0000.0001) ># namelist terminator. Other systems
(PID.TID 0000.0001) ># use a / character (as shown here).
(PID.TID 0000.0001) 
(PID.TID 0000.0001) // =======================================================
(PID.TID 0000.0001) // Computational Grid Specification ( see files "SIZE.h" )
(PID.TID 0000.0001) //                                  ( and "eedata"       )
(PID.TID 0000.0001) // =======================================================
(PID.TID 0000.0001)      nPx =    1 ; /* No. processes in X */
(PID.TID 0000.0001)      nPy =    1 ; /* No. processes in Y */
(PID.TID 0000.0001)      nSx =    1 ; /* No. tiles in X per process */
(PID.TID 0000.0001)      nSy =    1 ; /* No. tiles in Y per process */
(PID.TID 0000.0001)      sNx =   90 ; /* Tile size in X */
(PID.TID 0000.0001)      sNy =   40 ; /* Tile size in Y */
(PID.TID 0000.0001)      OLx =    3 ; /* Tile overlap distance in X */
(PID.TID 0000.0001)      OLy =    3 ; /* Tile overlap distance in Y */
(PID.TID 0000.0001)      nTx =    1 ; /* No. threads in X per process */
(PID.TID 0000.0001)      nTy =    1 ; /* No. threads in Y per process */
(PID.TID 0000.0001)       Nr =   15 ; /* No. levels in the vertical   */
(PID.TID 0000.0001)       nX =   90 ; /* Total domain size in X ( = nPx*nSx*sNx ) */
(PID.TID 0000.0001)       nY =   40 ; /* Total domain size in Y ( = nPy*nSy*sNy ) */
(PID.TID 0000.0001)   nTiles =    1 ; /* Total no. tiles per process ( = nSx*nSy ) */
(PID.TID 0000.0001)   nProcs =    1 ; /* Total no. processes ( = nPx*nPy ) */
(PID.TID 0000.0001) nThreads =    1 ; /* Total no. threads per process ( = nTx*nTy ) */
(PID.TID 0000.0001) usingMPI =    F ; /* Flag used to control whether MPI is in use */
(PID.TID 0000.0001)                   /*  note: To execute a program with MPI calls */
(PID.TID 0000.0001)                   /*  it must be launched appropriately e.g     */
(PID.TID 0000.0001)                   /*  "mpirun -np 64 ......"                    */
(PID.TID 0000.0001) useCoupler=   F ; /* Flag used to control communications with */
(PID.TID 0000.0001)                   /*  other model components, through a coupler */
(PID.TID 0000.0001) 
(PID.TID 0000.0001) // ======================================================
(PID.TID 0000.0001) // Mapping of tiles to threads
(PID.TID 0000.0001) // ======================================================
(PID.TID 0000.0001) // -o- Thread   1, tiles (   1:   1,   1:   1)
(PID.TID 0000.0001) 
(PID.TID 0000.0001) // ======================================================
(PID.TID 0000.0001) // Tile <-> Tile connectvity table
(PID.TID 0000.0001) // ======================================================
(PID.TID 0000.0001) // Tile number: 000001 (process no. = 000001)
(PID.TID 0000.0001) //        WEST: Tile = 000001, Process = 000001, Comm = put
(PID.TID 0000.0001) //                bi = 000001, bj = 000001
(PID.TID 0000.0001) //        EAST: Tile = 000001, Process = 000001, Comm = put
(PID.TID 0000.0001) //                bi = 000001, bj = 000001
(PID.TID 0000.0001) //       SOUTH: Tile = 000001, Process = 000001, Comm = put
(PID.TID 0000.0001) //                bi = 000001, bj = 000001
(PID.TID 0000.0001) //       NORTH: Tile = 000001, Process = 000001, Comm = put
(PID.TID 0000.0001) //                bi = 000001, bj = 000001
(PID.TID 0000.0001) 
(PID.TID 0000.0001) // =======================================================
(PID.TID 0000.0001) // Model parameter file "data"
(PID.TID 0000.0001) // =======================================================
(PID.TID 0000.0001) ># ====================
(PID.TID 0000.0001) ># | Model parameters |
(PID.TID 0000.0001) ># ====================
(PID.TID 0000.0001) >#
(PID.TID 0000.0001) ># Continuous equation parameters
(PID.TID 0000.0001) > &PARM01
(PID.TID 0000.0001) > tRef = 15*20.,
(PID.TID 0000.0001) > sRef = 15*35.,
(PID.TID 0000.0001) > viscAr=1.E-3,
(PID.TID 0000.0001) > viscAh=5.E5,
(PID.TID 0000.0001) > diffKhT=0.0,
(PID.TID 0000.0001) > diffKrT=3.E-5,
(PID.TID 0000.0001) > diffKhS=0.0,
(PID.TID 0000.0001) > diffKrS=3.E-5,
(PID.TID 0000.0001) > rhonil=1035.,
(PID.TID 0000.0001) > rotationPeriod=86400.,
(PID.TID 0000.0001) > gravity=9.81,
(PID.TID 0000.0001) > eosType = 'JMD95Z',
(PID.TID 0000.0001) > ivdc_kappa=100.,
(PID.TID 0000.0001) > implicitDiffusion=.TRUE.,
(PID.TID 0000.0001) > allowFreezing=.TRUE.,
(PID.TID 0000.0001) > useRealFreshWaterFlux=.TRUE.,
(PID.TID 0000.0001) > useCDscheme=.TRUE.,
(PID.TID 0000.0001) ># turn on looped cells
(PID.TID 0000.0001) > hFacMin=.05,
(PID.TID 0000.0001) > hFacMindr=50.,
(PID.TID 0000.0001) ># set precision of data files
(PID.TID 0000.0001) > readBinaryPrec=32,
(PID.TID 0000.0001) > &
(PID.TID 0000.0001) >
(PID.TID 0000.0001) ># Elliptic solver parameters
(PID.TID 0000.0001) > &PARM02
(PID.TID 0000.0001) > cg2dMaxIters=500,
(PID.TID 0000.0001) > cg2dTargetResidual=1.E-13,
(PID.TID 0000.0001) > &
(PID.TID 0000.0001) >
(PID.TID 0000.0001) ># Time stepping parameters
(PID.TID 0000.0001) > &PARM03
(PID.TID 0000.0001) > nIter0 =      0,
(PID.TID 0000.0001) > nTimeSteps = 10,
(PID.TID 0000.0001) ># 100 years of integration will yield a reasonable flow field
(PID.TID 0000.0001) ># startTime  =          0.,
(PID.TID 0000.0001) ># endTime    = 3110400000.,
(PID.TID 0000.0001) > deltaTmom = 1200.0,
(PID.TID 0000.0001) > tauCD =     321428.,
(PID.TID 0000.0001) > deltaTtracer= 43200.0,
(PID.TID 0000.0001) > deltaTClock = 43200.0,
(PID.TID 0000.0001) ># if you are using a version later than checkpoint45d on the main branch
(PID.TID 0000.0001) ># you can uncomment the following line and increase the time step
(PID.TID 0000.0001) ># deltaTtracer and deltaTClock to 172800.0 as well to speed up the
(PID.TID 0000.0001) ># asynchronous time stepping
(PID.TID 0000.0001) ># deltaTfreesurf = 172800.0,
(PID.TID 0000.0001) > abEps = 0.1,
(PID.TID 0000.0001) > pChkptFreq= 311040000.,
(PID.TID 0000.0001) > dumpFreq       = 2592000.,
(PID.TID 0000.0001) > adjDumpFreq    = 2592000.,
(PID.TID 0000.0001) > monitorFreq    = 2592000.,
(PID.TID 0000.0001) > adjMonitorFreq = 2592000.,
(PID.TID 0000.0001) ># 2 months restoring timescale for temperature
(PID.TID 0000.0001) > tauThetaClimRelax =  5184000.0,
(PID.TID 0000.0001) ># 6 months restoring timescale for salinity
(PID.TID 0000.0001) > tauSaltClimRelax = 15552000.0,
(PID.TID 0000.0001) > periodicExternalForcing=.TRUE.,
(PID.TID 0000.0001) > externForcingPeriod=2592000.,
(PID.TID 0000.0001) > externForcingCycle=31104000.,
(PID.TID 0000.0001) > &
(PID.TID 0000.0001) >
(PID.TID 0000.0001) ># Gridding parameters
(PID.TID 0000.0001) > &PARM04
(PID.TID 0000.0001) > usingCartesianGrid=.FALSE.,
(PID.TID 0000.0001) > usingSphericalPolarGrid=.TRUE.,
(PID.TID 0000.0001) > delR= 50., 70., 100., 140., 190.,
(PID.TID 0000.0001) >       240., 290., 340., 390., 440.,
(PID.TID 0000.0001) >       490., 540., 590., 640., 690.,
(PID.TID 0000.0001) > phiMin=-80.,
(PID.TID 0000.0001) > dySpacing=4.,
(PID.TID 0000.0001) > dxSpacing=4.,
(PID.TID 0000.0001) > &
(PID.TID 0000.0001) >
(PID.TID 0000.0001) ># Input datasets
(PID.TID 0000.0001) > &PARM05
(PID.TID 0000.0001) > bathyFile=      'bathymetry.bin',
(PID.TID 0000.0001) > hydrogThetaFile='lev_t.bin',
(PID.TID 0000.0001) > hydrogSaltFile= 'lev_s.bin',
(PID.TID 0000.0001) > zonalWindFile=  'trenberth_taux.bin',
(PID.TID 0000.0001) > meridWindFile=  'trenberth_tauy.bin',
(PID.TID 0000.0001) > thetaClimFile=  'lev_sst.bin',
(PID.TID 0000.0001) > saltClimFile=   'lev_sss.bin',
(PID.TID 0000.0001) > surfQFile=      'ncep_qnet.bin',
(PID.TID 0000.0001) ># fresh water flux is turned off, uncomment next line to turn on
(PID.TID 0000.0001) ># (not recommened together with surface salinity restoring)
(PID.TID 0000.0001) ># EmPmRFile=      'ncep_emp.bin',
(PID.TID 0000.0001) > &
(PID.TID 0000.0001) 
(PID.TID 0000.0001) S/R INI_PARMS ; starts to read PARM01
(PID.TID 0000.0001) S/R INI_PARMS ; read PARM01 : OK
(PID.TID 0000.0001) S/R INI_PARMS: No request for barotropic solver
(PID.TID 0000.0001) S/R INI_PARMS: => Use implicitFreeSurface as default
(PID.TID 0000.0001) S/R INI_PARMS ; starts to read PARM02
(PID.TID 0000.0001) S/R INI_PARMS ; read PARM02 : OK
(PID.TID 0000.0001) S/R INI_PARMS ; starts to read PARM03
(PID.TID 0000.0001) S/R INI_PARMS ; read PARM03 : OK
(PID.TID 0000.0001) S/R INI_PARMS ; starts to read PARM04
(PID.TID 0000.0001) S/R INI_PARMS ; read PARM04 : OK
(PID.TID 0000.0001) S/R INI_PARMS ; starts to read PARM05
(PID.TID 0000.0001) S/R INI_PARMS ; read PARM05 : OK
(PID.TID 0000.0001)  PACKAGES_BOOT: opening data.pkg
(PID.TID 0000.0001)  OPEN_COPY_DATA_FILE: opening file data.pkg
(PID.TID 0000.0001) // =======================================================
(PID.TID 0000.0001) // Parameter file "data.pkg"
(PID.TID 0000.0001) // =======================================================
(PID.TID 0000.0001) >#
(PID.TID 0000.0001) ># ********
(PID.TID 0000.0001) ># Packages
(PID.TID 0000.0001) ># ********
(PID.TID 0000.0001) > &PACKAGES
(PID.TID 0000.0001) > useGMRedi    = .TRUE.,
(PID.TID 0000.0001) > useKPP       = .FALSE.,
(PID.TID 0000.0001) > useGrdchk    = .TRUE.,
(PID.TID 0000.0001) > useMNC       = .FALSE.,
(PID.TID 0000.0001) > &
(PID.TID 0000.0001) 
(PID.TID 0000.0001)  PACKAGES_BOOT: finished reading data.pkg
(PID.TID 0000.0001)  GM_READPARMS: opening data.gmredi
(PID.TID 0000.0001)  OPEN_COPY_DATA_FILE: opening file data.gmredi
(PID.TID 0000.0001) // =======================================================
(PID.TID 0000.0001) // Parameter file "data.gmredi"
(PID.TID 0000.0001) // =======================================================
(PID.TID 0000.0001) ># GM+Redi package parameters:
(PID.TID 0000.0001) >#     GM_Small_Number  :: epsilon used in computing the slope
(PID.TID 0000.0001) >#     GM_slopeSqCutoff :: slope^2 cut-off value
(PID.TID 0000.0001) >
(PID.TID 0000.0001) >#-from MOM :
(PID.TID 0000.0001) ># GM_background_K: 	G & Mc.W  diffusion coefficient
(PID.TID 0000.0001) ># GM_maxSlope    :	max slope of isopycnals
(PID.TID 0000.0001) ># GM_Scrit       :	transition for scaling diffusion coefficient
(PID.TID 0000.0001) ># GM_Sd          :	half width scaling for diffusion coefficient
(PID.TID 0000.0001) ># GM_taper_scheme:	slope clipping or one of the tapering schemes
(PID.TID 0000.0001) ># GM_Kmin_horiz  :	horizontal diffusion minimum value
(PID.TID 0000.0001) >
(PID.TID 0000.0001) >#-Option parameters (needs to "define" options in GMREDI_OPTIONS.h")
(PID.TID 0000.0001) ># GM_isopycK     :	isopycnal diffusion coefficient (default=GM_background_K)
(PID.TID 0000.0001) ># GM_AdvForm     :	turn on GM Advective form       (default=Skew flux form)
(PID.TID 0000.0001) >
(PID.TID 0000.0001) > &GM_PARM01
(PID.TID 0000.0001) >  GM_Small_Number  = 1.D-12,
(PID.TID 0000.0001) >  GM_slopeSqCutoff = 1.D+08,
(PID.TID 0000.0001) >  GM_AdvForm         = .FALSE.,
(PID.TID 0000.0001) >  GM_isopycK         = 1.0D+3,
(PID.TID 0000.0001) >  GM_background_K    = 1.0D+3,
(PID.TID 0000.0001) >  GM_taper_scheme    = 'dm95',
(PID.TID 0000.0001) >  GM_maxSlope        = 1.D-2,
(PID.TID 0000.0001) >  GM_Kmin_horiz      = 50.,
(PID.TID 0000.0001) >  GM_Scrit           = 4.D-3,
(PID.TID 0000.0001) >  GM_Sd              = 1.D-3,
(PID.TID 0000.0001) >#  GM_Visbeck_alpha   = 1.5D-2,
(PID.TID 0000.0001) >#  GM_Visbeck_alpha   = 0.D0,
(PID.TID 0000.0001) >#  GM_Visbeck_length  = 2.D+5,
(PID.TID 0000.0001) >#  GM_Visbeck_depth   = 1.D+3,
(PID.TID 0000.0001) >#  GM_Visbeck_maxval_K= 2.5D+3,
(PID.TID 0000.0001) > &
(PID.TID 0000.0001) >
(PID.TID 0000.0001) >
(PID.TID 0000.0001) 
(PID.TID 0000.0001)  GM_READPARMS: finished reading data.gmredi
(PID.TID 0000.0001) OPTIM_READPARMS: opening data.optim
(PID.TID 0000.0001)  OPEN_COPY_DATA_FILE: opening file data.optim
(PID.TID 0000.0001) // =======================================================
(PID.TID 0000.0001) // Parameter file "data.optim"
(PID.TID 0000.0001) // =======================================================
(PID.TID 0000.0001) >#
(PID.TID 0000.0001) ># ********************************
(PID.TID 0000.0001) ># Off-line optimization parameters
(PID.TID 0000.0001) ># ********************************
(PID.TID 0000.0001) > &OPTIM
(PID.TID 0000.0001) > optimcycle=0,
(PID.TID 0000.0001) > &
(PID.TID 0000.0001) 
(PID.TID 0000.0001) OPTIM_READPARMS: finished reading data.optim
(PID.TID 0000.0001) CTRL_READPARMS: opening data.ctrl
(PID.TID 0000.0001)  OPEN_COPY_DATA_FILE: opening file data.ctrl
(PID.TID 0000.0001) // =======================================================
(PID.TID 0000.0001) // Parameter file "data.ctrl"
(PID.TID 0000.0001) // =======================================================
(PID.TID 0000.0001) >#
(PID.TID 0000.0001) >#
(PID.TID 0000.0001) ># *********************
(PID.TID 0000.0001) ># ECCO controlvariables
(PID.TID 0000.0001) ># *********************
(PID.TID 0000.0001) > &CTRL_NML
(PID.TID 0000.0001) > xx_theta_file      = 'xx_theta',
(PID.TID 0000.0001) > xx_salt_file       = 'xx_salt',
(PID.TID 0000.0001) > xx_tr1_file        = 'xx_tr1',
(PID.TID 0000.0001) > xx_hflux_file      = 'xx_hflux',
(PID.TID 0000.0001) > xx_sflux_file      = 'xx_sflux',
(PID.TID 0000.0001) > xx_tauu_file       = 'xx_tauu',
(PID.TID 0000.0001) > xx_tauv_file       = 'xx_tauv',
(PID.TID 0000.0001) > xx_diffkr_file     = 'xx_diffkr',
(PID.TID 0000.0001) > xx_kapgm_file      = 'xx_kapgm',
(PID.TID 0000.0001) > &
(PID.TID 0000.0001) >#
(PID.TID 0000.0001) ># *********************
(PID.TID 0000.0001) ># names for ctrl_pack/unpack
(PID.TID 0000.0001) ># *********************
(PID.TID 0000.0001) > &CTRL_PACKNAMES
(PID.TID 0000.0001) > ctrlname = 'ecco_ctrl',
(PID.TID 0000.0001) > costname = 'ecco_cost',
(PID.TID 0000.0001) > scalname = 'ecco_scal',
(PID.TID 0000.0001) > maskname = 'ecco_mask',
(PID.TID 0000.0001) > metaname = 'ecco_meta',
(PID.TID 0000.0001) > &
(PID.TID 0000.0001) >
(PID.TID 0000.0001) 
(PID.TID 0000.0001) CTRL_READPARMS: finished reading data.ctrl
(PID.TID 0000.0001) COST_READPARMS: opening data.cost
(PID.TID 0000.0001)  OPEN_COPY_DATA_FILE: opening file data.cost
(PID.TID 0000.0001) // =======================================================
(PID.TID 0000.0001) // Parameter file "data.cost"
(PID.TID 0000.0001) // =======================================================
(PID.TID 0000.0001) >#
(PID.TID 0000.0001) >#
(PID.TID 0000.0001) ># ******************
(PID.TID 0000.0001) ># ECCO cost function
(PID.TID 0000.0001) ># ******************
(PID.TID 0000.0001) > &COST_NML
(PID.TID 0000.0001) >#
(PID.TID 0000.0001) > mult_tracer  = 1.,
(PID.TID 0000.0001) > mult_test    = 1.,
(PID.TID 0000.0001) > mult_atl     = 1.,
(PID.TID 0000.0001) > &
(PID.TID 0000.0001) 
(PID.TID 0000.0001) COST_READPARMS: finished reading data.cost
(PID.TID 0000.0001) GRDCHK_READPARMS: opening data.grdchk
(PID.TID 0000.0001)  OPEN_COPY_DATA_FILE: opening file data.grdchk
(PID.TID 0000.0001) // =======================================================
(PID.TID 0000.0001) // Parameter file "data.grdchk"
(PID.TID 0000.0001) // =======================================================
(PID.TID 0000.0001) >
(PID.TID 0000.0001) ># *******************
(PID.TID 0000.0001) ># ECCO gradient check
(PID.TID 0000.0001) ># *******************
(PID.TID 0000.0001) > &GRDCHK_NML
(PID.TID 0000.0001) > grdchk_eps       = 1.d-2,
(PID.TID 0000.0001) > iGloPos          = 76,
(PID.TID 0000.0001) > jGloPos          = 27,
(PID.TID 0000.0001) > kGloPos          = 1,
(PID.TID 0000.0001) >### nbeg             = 1,
(PID.TID 0000.0001) > nstep            = 1,
(PID.TID 0000.0001) > nend             = 3,
(PID.TID 0000.0001) > grdchkvarindex   = 1,
(PID.TID 0000.0001) > &
(PID.TID 0000.0001) 
(PID.TID 0000.0001) GRDCHK_READPARMS: finished reading data.grdchk
(PID.TID 0000.0001) 
(PID.TID 0000.0001) // =======================================================
(PID.TID 0000.0001) // Gradient check configuration  >>> START <<<
(PID.TID 0000.0001) // =======================================================
(PID.TID 0000.0001) 
(PID.TID 0000.0001)   eps:                              0.100E-01
(PID.TID 0000.0001)   First location:                           0
(PID.TID 0000.0001)   Last location:                            3
(PID.TID 0000.0001)   Increment:                                1
(PID.TID 0000.0001) 
(PID.TID 0000.0001) // =======================================================
(PID.TID 0000.0001) // Gradient check configuration  >>> END <<<
(PID.TID 0000.0001) // =======================================================
(PID.TID 0000.0001) 
(PID.TID 0000.0001) SET_PARMS: done
(PID.TID 0000.0001) Enter INI_VERTICAL_GRID: setInterFDr=    T ; setCenterDr=    F
(PID.TID 0000.0001) %MON XC_max                       =   3.5800000000000E+02
(PID.TID 0000.0001) %MON XC_min                       =   2.0000000000000E+00
(PID.TID 0000.0001) %MON XC_mean                      =   1.8000000000000E+02
(PID.TID 0000.0001) %MON XC_sd                        =   1.0391663325314E+02
(PID.TID 0000.0001) %MON XG_max                       =   3.5600000000000E+02
(PID.TID 0000.0001) %MON XG_min                       =   4.0000000000000E+00
(PID.TID 0000.0001) %MON XG_mean                      =   1.8000000000000E+02
(PID.TID 0000.0001) %MON XG_sd                        =   1.0276186062932E+02
(PID.TID 0000.0001) %MON DXC_max                      =   4.4443898815675E+05
(PID.TID 0000.0001) %MON DXC_min                      =   9.2460385861875E+04
(PID.TID 0000.0001) %MON DXC_mean                     =   3.1372497618153E+05
(PID.TID 0000.0001) %MON DXC_sd                       =   1.1216447457560E+05
(PID.TID 0000.0001) %MON DXF_max                      =   4.4443898815675E+05
(PID.TID 0000.0001) %MON DXF_min                      =   9.2460385861875E+04
(PID.TID 0000.0001) %MON DXF_mean                     =   3.1372497618153E+05
(PID.TID 0000.0001) %MON DXF_sd                       =   1.1216447457560E+05
(PID.TID 0000.0001) %MON DXG_max                      =   4.4470989340816E+05
(PID.TID 0000.0001) %MON DXG_min                      =   7.7223062580781E+04
(PID.TID 0000.0001) %MON DXG_mean                     =   3.1353386340260E+05
(PID.TID 0000.0001) %MON DXG_sd                       =   1.1256651772502E+05
(PID.TID 0000.0001) %MON DXV_max                      =   4.4470989340816E+05
(PID.TID 0000.0001) %MON DXV_min                      =   7.7223062580781E+04
(PID.TID 0000.0001) %MON DXV_mean                     =   3.1353386340260E+05
(PID.TID 0000.0001) %MON DXV_sd                       =   1.1256651772502E+05
(PID.TID 0000.0001) %MON YC_max                       =   7.8000000000000E+01
(PID.TID 0000.0001) %MON YC_min                       =  -7.8000000000000E+01
(PID.TID 0000.0001) %MON YC_mean                      =   0.0000000000000E+00
(PID.TID 0000.0001) %MON YC_sd                        =   4.6173585522461E+01
(PID.TID 0000.0001) %MON YG_max                       =   7.6000000000000E+01
(PID.TID 0000.0001) %MON YG_min                       =  -8.0000000000000E+01
(PID.TID 0000.0001) %MON YG_mean                      =  -2.0512820512821E+00
(PID.TID 0000.0001) %MON YG_sd                        =   4.6760682979564E+01
(PID.TID 0000.0001) %MON DYC_max                      =   4.4470989340816E+05
(PID.TID 0000.0001) %MON DYC_min                      =   4.4470989340816E+05
(PID.TID 0000.0001) %MON DYC_mean                     =   4.4470989340814E+05
(PID.TID 0000.0001) %MON DYC_sd                       =   1.9848812371492E-08
(PID.TID 0000.0001) %MON DYF_max                      =   4.4470989340816E+05
(PID.TID 0000.0001) %MON DYF_min                      =   4.4470989340816E+05
(PID.TID 0000.0001) %MON DYF_mean                     =   4.4470989340814E+05
(PID.TID 0000.0001) %MON DYF_sd                       =   1.9848812371492E-08
(PID.TID 0000.0001) %MON DYG_max                      =   4.4470989340816E+05
(PID.TID 0000.0001) %MON DYG_min                      =   4.4470989340816E+05
(PID.TID 0000.0001) %MON DYG_mean                     =   4.4470989340814E+05
(PID.TID 0000.0001) %MON DYG_sd                       =   1.9848812371492E-08
(PID.TID 0000.0001) %MON DYU_max                      =   4.4470989340816E+05
(PID.TID 0000.0001) %MON DYU_min                      =   4.4470989340816E+05
(PID.TID 0000.0001) %MON DYU_mean                     =   4.4470989340814E+05
(PID.TID 0000.0001) %MON DYU_sd                       =   1.9848812371492E-08
(PID.TID 0000.0001) %MON RA_max                       =   1.9760627980089E+11
(PID.TID 0000.0001) %MON RA_min                       =   4.1109698667290E+10
(PID.TID 0000.0001) %MON RA_mean                      =   1.3948826965197E+11
(PID.TID 0000.0001) %MON RA_sd                        =   4.9870522472902E+10
(PID.TID 0000.0001) %MON RAW_max                      =   1.9760627980089E+11
(PID.TID 0000.0001) %MON RAW_min                      =   4.1109698667290E+10
(PID.TID 0000.0001) %MON RAW_mean                     =   1.3948826965197E+11
(PID.TID 0000.0001) %MON RAW_sd                       =   4.9870522472902E+10
(PID.TID 0000.0001) %MON RAS_max                      =   1.9772672958215E+11
(PID.TID 0000.0001) %MON RAS_min                      =   3.4334886267983E+10
(PID.TID 0000.0001) %MON RAS_mean                     =   1.3940329716694E+11
(PID.TID 0000.0001) %MON RAS_sd                       =   5.0049278732354E+10
(PID.TID 0000.0001) %MON RAZ_max                      =   1.9772672958215E+11
(PID.TID 0000.0001) %MON RAZ_min                      =   3.4334886267983E+10
(PID.TID 0000.0001) %MON RAZ_mean                     =   1.3940329716694E+11
(PID.TID 0000.0001) %MON RAZ_sd                       =   5.0049278732354E+10
(PID.TID 0000.0001) %MON AngleCS_max                  =   1.0000000000000E+00
(PID.TID 0000.0001) %MON AngleCS_min                  =   1.0000000000000E+00
(PID.TID 0000.0001) %MON AngleCS_mean                 =   1.0000000000000E+00
(PID.TID 0000.0001) %MON AngleCS_sd                   =   0.0000000000000E+00
(PID.TID 0000.0001) %MON AngleSN_max                  =   0.0000000000000E+00
(PID.TID 0000.0001) %MON AngleSN_min                  =   0.0000000000000E+00
(PID.TID 0000.0001) %MON AngleSN_mean                 =   0.0000000000000E+00
(PID.TID 0000.0001) %MON AngleSN_sd                   =   0.0000000000000E+00
(PID.TID 0000.0001)  MDS_READ_FIELD: opening global file: bathymetry.bin
(PID.TID 0000.0001) // =======================================================
(PID.TID 0000.0001) // Field Model R_low (ini_masks_etc) at iteration          1
(PID.TID 0000.0001) // CMIN =         -5.200000000000000E+03
(PID.TID 0000.0001) // CMAX =         -1.200000000000000E+02
(PID.TID 0000.0001) // CINT =          1.881481481481482E+02
(PID.TID 0000.0001) // SYMBOLS (CMIN->CMAX): -abcdefghijklmnopqrstuvwxyz+
(PID.TID 0000.0001) //                  0.0: .
(PID.TID 0000.0001) // RANGE I (Lo:Hi:Step):(  -2:  93:   1)
(PID.TID 0000.0001) // RANGE J (Lo:Hi:Step):(  43:  -2:  -1)
(PID.TID 0000.0001) // RANGE K (Lo:Hi:Step):(   1:   1:   1)
(PID.TID 0000.0001) // =======================================================
(PID.TID 0000.0001) K =   1
(PID.TID 0000.0001) //                I=7       I=17      I=27      I=37      I=47      I=57      I=67      I=77      I=87
(PID.TID 0000.0001) // |--J--|210123456|890123456|890123456|890123456|890123456|890123456|890123456|890123456|890123456|890123
(PID.TID 0000.0001) //     43 ................................................................................................
(PID.TID 0000.0001) //     42 .............................................zyxxmgfeeefefgimnpwwwy..+zyy.....yyyyoiiihhz+......
(PID.TID 0000.0001) //     41 ................................................................................................
(PID.TID 0000.0001) //     40 +qlloqz+.++++zzz++++++..................................................................+++qlloq
(PID.TID 0000.0001) //     39 uslloorzzzzzzzzz+...++.....................................................yxxz........+zvuslloo
(PID.TID 0000.0001) //     38 smqpporzzzzzz+++...........................................................zxxy+......zyyvsmqppo
(PID.TID 0000.0001) //     37 smmmuz..................................................................++...zy+...yttyy.+smmmuz
(PID.TID 0000.0001) //     36 yutt+.........................................mm++....................+++++++znmm.yoowssvuyutt+.
(PID.TID 0000.0001) //     35 w++++.................................+zzz..rrmmkk+...+gghn...........+++....+nmiijlsoopuww++++.
(PID.TID 0000.0001) //     34 +.....................................+vvy.ggqyxv+y.ccdffhim..................+nihhikkihhm+.....
(PID.TID 0000.0001) //     33 w+.....................................uuz---h------aaabdefin+.................zqvddflifffw+....
(PID.TID 0000.0001) //     32 m+.....................................+t----h---------acdfgnn................+++gdffkofffm+....
(PID.TID 0000.0001) //     31 m......................................-----ad--------abddegil..............qbaafccdhqqgddm.....
(PID.TID 0000.0001) //     30 i.....................................f----b--b------------abd............zfbb--fbcdosjfddi.....
(PID.TID 0000.0001) //     29 i...................................tu----e---fjg----------abdf...........eaac--abfmijaadgi.....
(PID.TID 0000.0001) //     28 z.................................+xfl-------------------bdedefi.........qbaa---aemfbbaaejz.....
(PID.TID 0000.0001) //     27 .................xx..............+wfgfpf--------eallc---bbbccefgi...+++x.qb-----akfa---ah.......
(PID.TID 0000.0001) //     26 .................xnn...........+vd---dna------a--aicfna---aabdfghku.++xssuy-----bgca---ci.......
(PID.TID 0000.0001) //     25 .................iiik...oo+...+ivd---doaa-bc--ilglf--aa---aabcghhkll...ssum+xaaacjbaabdjk.......
(PID.TID 0000.0001) //     24 ...............xnheeft.kkk+...uii.aagdm----aa-----a-------bbbcdefjljjju.zummwwbbchba--abi.......
(PID.TID 0000.0001) //     23 ...............xgheefp.iikw...uuw..fihi----fed-----eaaa--bbbbcdfflkjiiiq....zykccefa--abd.......
(PID.TID 0000.0001) //     22 quss...........bbelffslffkk...zz.wqkeeqoheccdfa-----egabaabcdddegghliiiqq......xeeehheehccquss..
(PID.TID 0000.0001) //     21 cbbeir........nbbcdjhqdddiiz.....wqfeelgghmedea-----bibbcddddddefghklnqoo........ieeflhgcccbbeir
(PID.TID 0000.0001) //     20 cbbder.......ldcccdgkccccidd......z.vkkktqqhegg----aaacddddddddefghkiiijl.........nhfa--gfcbbder
(PID.TID 0000.0001) //     19 hcdaaf.......kddosggpaaaibbccx...+z+.....r+nlec---agaaabcddccddefikfgffff...........d---cjhcdaaf
(PID.TID 0000.0001) //     18 hd---d.......kglggvliaaaibbcaaeaiv++...qqzolhecccfdgkaabcdfccdeeikgfgffdd+..........d---djhd---d
(PID.TID 0000.0001) //     17 hc---c.......l.feewlfaaaoaa----aiv.....qqnllslmlofcdbaacceffffhhligfigeddj.........hd---ckhc---c
(PID.TID 0000.0001) //     16 gba--c......tn.ddgnlfdaaqa-----lv.......vnllvllnwv--accivomfffhilhgfffeddjf........re--aeigba--c
(PID.TID 0000.0001) //     15 fb--dpz....+ll.ccdfhmdddlc----av.........otsxoomv---abccddfihgijkhgfffeejfff......+fd---ckfb--dp
(PID.TID 0000.0001) //     14 fc--mcl....weeqbaafilkfend--eagy.........hhstofft----aacdheefijkmjhhjijiffff.....zlfdaaadlfc--mc
(PID.TID 0000.0001) //     13 hcclbbg....nccobaaiddgkffqrqeaal.........eeutqfft------aaceeffhijlkjhhigfffq....+jgfodccflhcclbb
(PID.TID 0000.0001) //     12 hhgaaacw+iiicclemhdddfliigfdcaabfaaaz....ccsurqpc--------abcifffikiiihhggff.....kbbbdfffglhhgaaa
(PID.TID 0000.0001) //     11 kgcaaacbbifccennhbbdefnihgfdccaaaa----..dcccnt.ncab-------aabcdfilhggjiggff....l---abcefjlkgcaaa
(PID.TID 0000.0001) //     10 kfcaaccbdaacfrllfbbdegkmmljhfdddba----d.dcccfx.nyrebaba----abcdgilhfeegijgi..+w--aa-abcfilkfcaac
(PID.TID 0000.0001) //      9 lffcdcccaaaoqsolfdeehikihhlllgfedcccccdmdcccf.vyfaaaaaaaa--abdehmjhfeeefglv.++w-----abcdfklffcdc
(PID.TID 0000.0001) //      8 liffjklcaafddffeeccvznkfffhhhlkjifgjkkfeeddfsyvcaaaaaaccdcccdfgjligedbbceg+.++xffn--cfddefliffjk
(PID.TID 0000.0001) //      7 hmqnnbbkkf--bmbaabbgtykfddeffeeddccdfhlffeelfbaaaaaacddeghgjgjlligeddaaabedfiiiiiisvkfkecchmqnnb
(PID.TID 0000.0001) //      6 cca-------------aabcelttdddedddddccccdfkkiiffbaaaabcdgimmkmefecaaabbbaaabbdfiiiiispmmregifcca---
(PID.TID 0000.0001) //      5 --------a-------aaccehhhiddeddddddcccdfiikomodddefffmlmigedccaaaaaaaababbbdfiijsqgeccccbaa------
(PID.TID 0000.0001) //      4 --ahebaabbbbbeihffgijiiiijpywnnpokkomkiiijmmmolkommmgffeeedccaaaaaabbcccefhmz..yjgeccccbaa--aheb
(PID.TID 0000.0001) //      3 gffhhrpjiiwyy............................yxotmjjjjgfeeeeeeddeffffheddeghjkyy..yqjgeddccdbbgffhhr
(PID.TID 0000.0001) //      2 .............................................zyxxmgfeeefefgimnpwwwy..+zyy.....yyyyoiiihhz+......
(PID.TID 0000.0001) //      1 ................................................................................................
(PID.TID 0000.0001) //      0 +qlloqz+.++++zzz++++++..................................................................+++qlloq
(PID.TID 0000.0001) //     -1 uslloorzzzzzzzzz+...++.....................................................yxxz........+zvuslloo
(PID.TID 0000.0001) //     -2 ................................................................................................
(PID.TID 0000.0001) // =======================================================
(PID.TID 0000.0001) // END OF FIELD                                          =
(PID.TID 0000.0001) // =======================================================
(PID.TID 0000.0001) 
(PID.TID 0000.0001) // =======================================================
(PID.TID 0000.0001) // Field Model Ro_surf (ini_masks_etc) at iteration          1
(PID.TID 0000.0001) // CMIN =          1.000000000000000E+32
(PID.TID 0000.0001) // CMAX =         -1.000000000000000E+32
(PID.TID 0000.0001) // CINT =          0.000000000000000E+00
(PID.TID 0000.0001) // SYMBOLS (CMIN->CMAX): -abcdefghijklmnopqrstuvwxyz+
(PID.TID 0000.0001) //                  0.0: .
(PID.TID 0000.0001) // RANGE I (Lo:Hi:Step):(  -2:  93:   1)
(PID.TID 0000.0001) // RANGE J (Lo:Hi:Step):(  43:  -2:  -1)
(PID.TID 0000.0001) // RANGE K (Lo:Hi:Step):(   1:   1:   1)
(PID.TID 0000.0001) // =======================================================
(PID.TID 0000.0001) // =======================================================
(PID.TID 0000.0001) // END OF FIELD                                          =
(PID.TID 0000.0001) // =======================================================
(PID.TID 0000.0001) 
(PID.TID 0000.0001) // =======================================================
(PID.TID 0000.0001) // Field hFacC at iteration          1
(PID.TID 0000.0001) // CMIN =          1.000000000000000E+00
(PID.TID 0000.0001) // CMAX =          1.000000000000000E+00
(PID.TID 0000.0001) // CINT =          0.000000000000000E+00
(PID.TID 0000.0001) // SYMBOLS (CMIN->CMAX): -abcdefghijklmnopqrstuvwxyz+
(PID.TID 0000.0001) //                  0.0: .
(PID.TID 0000.0001) // RANGE I (Lo:Hi:Step):(  -2:  93:   1)
(PID.TID 0000.0001) // RANGE J (Lo:Hi:Step):(  43:  -2:  -1)
(PID.TID 0000.0001) // RANGE K (Lo:Hi:Step):(   1:   1:   1)
(PID.TID 0000.0001) // =======================================================
(PID.TID 0000.0001) // =======================================================
(PID.TID 0000.0001) // END OF FIELD                                          =
(PID.TID 0000.0001) // =======================================================
(PID.TID 0000.0001) 
(PID.TID 0000.0001) // =======================================================
(PID.TID 0000.0001) // Field hFacW at iteration          1
(PID.TID 0000.0001) // CMIN =          1.000000000000000E+00
(PID.TID 0000.0001) // CMAX =          1.000000000000000E+00
(PID.TID 0000.0001) // CINT =          0.000000000000000E+00
(PID.TID 0000.0001) // SYMBOLS (CMIN->CMAX): -abcdefghijklmnopqrstuvwxyz+
(PID.TID 0000.0001) //                  0.0: .
(PID.TID 0000.0001) // RANGE I (Lo:Hi:Step):(  -2:  93:   1)
(PID.TID 0000.0001) // RANGE J (Lo:Hi:Step):(  43:  -2:  -1)
(PID.TID 0000.0001) // RANGE K (Lo:Hi:Step):(   1:   1:   1)
(PID.TID 0000.0001) // =======================================================
(PID.TID 0000.0001) // =======================================================
(PID.TID 0000.0001) // END OF FIELD                                          =
(PID.TID 0000.0001) // =======================================================
(PID.TID 0000.0001) 
(PID.TID 0000.0001) // =======================================================
(PID.TID 0000.0001) // Field hFacS at iteration          1
(PID.TID 0000.0001) // CMIN =          1.000000000000000E+00
(PID.TID 0000.0001) // CMAX =          1.000000000000000E+00
(PID.TID 0000.0001) // CINT =          0.000000000000000E+00
(PID.TID 0000.0001) // SYMBOLS (CMIN->CMAX): -abcdefghijklmnopqrstuvwxyz+
(PID.TID 0000.0001) //                  0.0: .
(PID.TID 0000.0001) // RANGE I (Lo:Hi:Step):(  -2:  93:   1)
(PID.TID 0000.0001) // RANGE J (Lo:Hi:Step):(  43:  -2:  -1)
(PID.TID 0000.0001) // RANGE K (Lo:Hi:Step):(   1:   1:   1)
(PID.TID 0000.0001) // =======================================================
(PID.TID 0000.0001) // =======================================================
(PID.TID 0000.0001) // END OF FIELD                                          =
(PID.TID 0000.0001) // =======================================================
(PID.TID 0000.0001) 
(PID.TID 0000.0001) 
(PID.TID 0000.0001) // ===================================
(PID.TID 0000.0001) // GAD parameters :
(PID.TID 0000.0001) // ===================================
(PID.TID 0000.0001) tempAdvScheme =   /* Temp. Horiz.Advection scheme selector */
(PID.TID 0000.0001)                       2
(PID.TID 0000.0001)     ;
(PID.TID 0000.0001) tempVertAdvScheme =   /* Temp. Vert. Advection scheme selector */
(PID.TID 0000.0001)                       2
(PID.TID 0000.0001)     ;
(PID.TID 0000.0001) tempMultiDimAdvec =   /* use Muti-Dim Advec method for Temp */
(PID.TID 0000.0001)                   F
(PID.TID 0000.0001)     ;
(PID.TID 0000.0001) tempSOM_Advection = /* use 2nd Order Moment Advection for Temp */
(PID.TID 0000.0001)                   F
(PID.TID 0000.0001)     ;
(PID.TID 0000.0001) AdamsBashforthGt = /* apply Adams-Bashforth extrapolation on Gt */
(PID.TID 0000.0001)                   T
(PID.TID 0000.0001)     ;
(PID.TID 0000.0001) AdamsBashforth_T = /* apply Adams-Bashforth extrapolation on Temp */
(PID.TID 0000.0001)                   F
(PID.TID 0000.0001)     ;
(PID.TID 0000.0001) saltAdvScheme =   /* Salt. Horiz.advection scheme selector */
(PID.TID 0000.0001)                       2
(PID.TID 0000.0001)     ;
(PID.TID 0000.0001) saltVertAdvScheme =   /* Salt. Vert. Advection scheme selector */
(PID.TID 0000.0001)                       2
(PID.TID 0000.0001)     ;
(PID.TID 0000.0001) saltMultiDimAdvec =   /* use Muti-Dim Advec method for Salt */
(PID.TID 0000.0001)                   F
(PID.TID 0000.0001)     ;
(PID.TID 0000.0001) saltSOM_Advection = /* use 2nd Order Moment Advection for Salt */
(PID.TID 0000.0001)                   F
(PID.TID 0000.0001)     ;
(PID.TID 0000.0001) AdamsBashforthGs = /* apply Adams-Bashforth extrapolation on Gs */
(PID.TID 0000.0001)                   T
(PID.TID 0000.0001)     ;
(PID.TID 0000.0001) AdamsBashforth_S = /* apply Adams-Bashforth extrapolation on Salt */
(PID.TID 0000.0001)                   F
(PID.TID 0000.0001)     ;
(PID.TID 0000.0001) // ===================================
(PID.TID 0000.0001) ctrl-wet 1:    nvarlength =       117236
(PID.TID 0000.0001) ctrl-wet 2: surface wet C =         2315
(PID.TID 0000.0001) ctrl-wet 3: surface wet W =         2206
(PID.TID 0000.0001) ctrl-wet 4: surface wet S =         2149
(PID.TID 0000.0001) ctrl-wet 4a:surface wet V =            0
(PID.TID 0000.0001) ctrl-wet 5: 3D wet points =        29309
(PID.TID 0000.0001) ctrl-wet 6: no recs for i =     1           1
(PID.TID 0000.0001) ctrl-wet 6: no recs for i =     2           1
(PID.TID 0000.0001) ctrl-wet 6: no recs for i =     3           0
(PID.TID 0000.0001) ctrl-wet 6: no recs for i =     4           0
(PID.TID 0000.0001) ctrl-wet 6: no recs for i =     5           0
(PID.TID 0000.0001) ctrl-wet 6: no recs for i =     6           0
(PID.TID 0000.0001) ctrl-wet 6: no recs for i =     7           0
(PID.TID 0000.0001) ctrl-wet 6: no recs for i =     8           0
(PID.TID 0000.0001) ctrl-wet 6: no recs for i =     9           0
(PID.TID 0000.0001) ctrl-wet 6: no recs for i =    10           0
(PID.TID 0000.0001) ctrl-wet 6: no recs for i =    11           0
(PID.TID 0000.0001) ctrl-wet 6: no recs for i =    12           0
(PID.TID 0000.0001) ctrl-wet 6: no recs for i =    13           0
(PID.TID 0000.0001) ctrl-wet 6: no recs for i =    14           0
(PID.TID 0000.0001) ctrl-wet 6: no recs for i =    15           1
(PID.TID 0000.0001) ctrl-wet 6: no recs for i =    16           1
(PID.TID 0000.0001) ctrl-wet 6: no recs for i =    17           0
(PID.TID 0000.0001) ctrl-wet 6: no recs for i =    18           0
(PID.TID 0000.0001) ctrl-wet 6: no recs for i =    19           0
(PID.TID 0000.0001) ctrl-wet 6: no recs for i =    20           0
(PID.TID 0000.0001) ctrl-wet 6: no recs for i =    21           0
(PID.TID 0000.0001) ctrl-wet 6: no recs for i =    22           0
(PID.TID 0000.0001) ctrl-wet 6: no recs for i =    23           0
(PID.TID 0000.0001) ctrl-wet 6: no recs for i =    24           0
(PID.TID 0000.0001) ctrl-wet 6: no recs for i =    25           0
(PID.TID 0000.0001) ctrl-wet 6: no recs for i =    26           0
(PID.TID 0000.0001) ctrl-wet 6: no recs for i =    27           0
(PID.TID 0000.0001) ctrl-wet 6: no recs for i =    28           0
(PID.TID 0000.0001) ctrl-wet 6: no recs for i =    29           0
(PID.TID 0000.0001) ctrl-wet 6: no recs for i =    30           0
(PID.TID 0000.0001) ctrl-wet 6: no recs for i =    31           0
(PID.TID 0000.0001) ctrl-wet 6: no recs for i =    32           0
(PID.TID 0000.0001) ctrl-wet 6: no recs for i =    33           0
(PID.TID 0000.0001) ctrl-wet 6: no recs for i =    34           0
(PID.TID 0000.0001) ctrl-wet 6: no recs for i =    35           0
(PID.TID 0000.0001) ctrl-wet 6: no recs for i =    36           0
(PID.TID 0000.0001) ctrl-wet 6: no recs for i =    37           0
(PID.TID 0000.0001) ctrl-wet 6: no recs for i =    38           0
(PID.TID 0000.0001) ctrl-wet 6: no recs for i =    39           0
(PID.TID 0000.0001) ctrl-wet 6: no recs for i =    40           0
(PID.TID 0000.0001) ctrl-wet 6: no recs for i =    41           0
(PID.TID 0000.0001) ctrl-wet 6: no recs for i =    42           0
(PID.TID 0000.0001) ctrl-wet 6: no recs for i =    43           0
(PID.TID 0000.0001) ctrl-wet 6: no recs for i =    44           0
(PID.TID 0000.0001) ctrl-wet 6: no recs for i =    45           0
(PID.TID 0000.0001) ctrl-wet 6: no recs for i =    46           0
(PID.TID 0000.0001) ctrl-wet 6: no recs for i =    47           0
(PID.TID 0000.0001) ctrl-wet 6: no recs for i =    48           0
(PID.TID 0000.0001) ctrl-wet 6: no recs for i =    49           0
(PID.TID 0000.0001) ctrl-wet 6: no recs for i =    50           0
(PID.TID 0000.0001) ctrl-wet 6: no recs for i =    51           0
(PID.TID 0000.0001) ctrl-wet 6: no recs for i =    52           0
(PID.TID 0000.0001) ctrl-wet 6: no recs for i =    53           0
(PID.TID 0000.0001) ctrl-wet 6: no recs for i =    54           0
(PID.TID 0000.0001) ctrl-wet 6: no recs for i =    55           0
(PID.TID 0000.0001) ctrl-wet 6: no recs for i =    56           0
(PID.TID 0000.0001) ctrl-wet 6: no recs for i =    57           0
(PID.TID 0000.0001) ctrl-wet 6: no recs for i =    58           0
(PID.TID 0000.0001) ctrl-wet 6: no recs for i =    59           0
(PID.TID 0000.0001) ctrl-wet 6: no recs for i =    60           0
(PID.TID 0000.0001) ctrl-wet 7: flux         58618
(PID.TID 0000.0001) ctrl-wet 8: atmos        58618
(PID.TID 0000.0001) ctrl-wet -------------------------------------------------
(PID.TID 0000.0001) ctrl-wet 13: global nvarlength for Nr =   15      117236
(PID.TID 0000.0001) ctrl-wet -------------------------------------------------
(PID.TID 0000.0001) ctrl-wet 14: global nWet C/S/W/V k=    1        2315        2149        2206           0
(PID.TID 0000.0001) ctrl-wet 14: global nWet C/S/W/V k=    2        2315        2149        2206           0
(PID.TID 0000.0001) ctrl-wet 14: global nWet C/S/W/V k=    3        2254        2102        2146           0
(PID.TID 0000.0001) ctrl-wet 14: global nWet C/S/W/V k=    4        2215        2058        2104           0
(PID.TID 0000.0001) ctrl-wet 14: global nWet C/S/W/V k=    5        2178        2027        2070           0
(PID.TID 0000.0001) ctrl-wet 14: global nWet C/S/W/V k=    6        2142        1987        2029           0
(PID.TID 0000.0001) ctrl-wet 14: global nWet C/S/W/V k=    7        2114        1959        2004           0
(PID.TID 0000.0001) ctrl-wet 14: global nWet C/S/W/V k=    8        2076        1918        1959           0
(PID.TID 0000.0001) ctrl-wet 14: global nWet C/S/W/V k=    9        2048        1887        1925           0
(PID.TID 0000.0001) ctrl-wet 14: global nWet C/S/W/V k=   10        1999        1831        1869           0
(PID.TID 0000.0001) ctrl-wet 14: global nWet C/S/W/V k=   11        1948        1771        1808           0
(PID.TID 0000.0001) ctrl-wet 14: global nWet C/S/W/V k=   12        1850        1653        1705           0
(PID.TID 0000.0001) ctrl-wet 14: global nWet C/S/W/V k=   13        1655        1404        1458           0
(PID.TID 0000.0001) ctrl-wet 14: global nWet C/S/W/V k=   14        1372        1118        1164           0
(PID.TID 0000.0001) ctrl-wet 14: global nWet C/S/W/V k=   15         828         623         671           0
(PID.TID 0000.0001) ctrl-wet -------------------------------------------------
(PID.TID 0000.0001) ctrl-wet -------------------------------------------------
(PID.TID 0000.0001) ctrl-wet -------------------------------------------------
(PID.TID 0000.0001) ctrl_init: no. of control variables:            4
(PID.TID 0000.0001) ctrl_init: control vector length:          117236
(PID.TID 0000.0001) GAD_CHECK: #define ALLOW_GENERIC_ADVDIFF
(PID.TID 0000.0001) GMREDI_CHECK: #define GMREDI
(PID.TID 0000.0001) GM_AdvForm =  /* if FALSE => use SkewFlux Form */
(PID.TID 0000.0001)                   F
(PID.TID 0000.0001)     ;
(PID.TID 0000.0001) GM_AdvSeparate = /* Calc Bolus & Euler Adv. separately */
(PID.TID 0000.0001)                   F
(PID.TID 0000.0001)     ;
(PID.TID 0000.0001) GM_ExtraDiag =  /* Tensor Extra Diag (line 1&2) non 0 */
(PID.TID 0000.0001)                   F
(PID.TID 0000.0001)     ;
(PID.TID 0000.0001) GM_isopycK =   /* Background Isopyc. Diffusivity ( m^2/s ) */
(PID.TID 0000.0001)                 1.000000000000000E+03
(PID.TID 0000.0001)     ;
(PID.TID 0000.0001)  GM_skewflx*K =   /* Background GM_SkewFlx Diffusivity ( m^2/s ) */
(PID.TID 0000.0001)                 1.000000000000000E+03
(PID.TID 0000.0001)     ;
(PID.TID 0000.0001)  GM_advec*K =   /* Backg. GM-Advec(=Bolus) Diffusivity ( m^2/s ) */
(PID.TID 0000.0001)                 0.000000000000000E+00
(PID.TID 0000.0001)     ;
(PID.TID 0000.0001)  GM_Visbeck_alpha =   /* Visbeck alpha coeff. ( ) */
(PID.TID 0000.0001)                 0.000000000000000E+00
(PID.TID 0000.0001)     ;
(PID.TID 0000.0001)  Tapering/Cliping : dm95
(PID.TID 0000.0001)  GM_Small_Number =  /* epsilon used in slope calc */
(PID.TID 0000.0001)                 1.000000000000000E-12
(PID.TID 0000.0001)     ;
(PID.TID 0000.0001)  GM_slopeSqCutoff =  /* Slope^2 cut-off value */
(PID.TID 0000.0001)                 1.000000000000000E+08
(PID.TID 0000.0001)     ;
(PID.TID 0000.0001) CTRL_CHECK: ctrl package
(PID.TID 0000.0001) COST_CHECK: cost package
(PID.TID 0000.0001) CTRL_CHECK: ctrl package
(PID.TID 0000.0001) %MON fCori_max                    =   1.4226580169407E-04
(PID.TID 0000.0001) %MON fCori_min                    =  -1.4226580169407E-04
(PID.TID 0000.0001) %MON fCori_mean                   =   7.5291817533716E-23
(PID.TID 0000.0001) %MON fCori_sd                     =   9.6335367303778E-05
(PID.TID 0000.0001) %MON fCoriG_max                   =   1.4112379284621E-04
(PID.TID 0000.0001) %MON fCoriG_min                   =  -1.4323448157692E-04
(PID.TID 0000.0001) %MON fCoriG_mean                  =  -3.6726790147928E-06
(PID.TID 0000.0001) %MON fCoriG_sd                    =   9.7510077443652E-05
(PID.TID 0000.0001) %MON fCoriCos_max                 =   1.4535550371427E-04
(PID.TID 0000.0001) %MON fCoriCos_min                 =   3.0239529651320E-05
(PID.TID 0000.0001) %MON fCoriCos_mean                =   1.0260497651149E-04
(PID.TID 0000.0001) %MON fCoriCos_sd                  =   3.6683828681187E-05
(PID.TID 0000.0001) INI_CG2D: CG2D normalisation factor =  6.5682677425711703E-05
(PID.TID 0000.0001) 
(PID.TID 0000.0001) CONFIG_CHECK: OK
(PID.TID 0000.0001) // =======================================================
(PID.TID 0000.0001) // Model configuration
(PID.TID 0000.0001) // =======================================================
(PID.TID 0000.0001) //
(PID.TID 0000.0001) // "Physical" paramters ( PARM01 in namelist )
(PID.TID 0000.0001) //
(PID.TID 0000.0001) buoyancyRelation = /* Type of relation to get Buoyancy */
(PID.TID 0000.0001)               'OCEANIC'
(PID.TID 0000.0001)     ;
(PID.TID 0000.0001) fluidIsAir  =  /* fluid major constituent is Air */
(PID.TID 0000.0001)                   F
(PID.TID 0000.0001)     ;
(PID.TID 0000.0001) fluidIsWater=  /* fluid major constituent is Water */
(PID.TID 0000.0001)                   T
(PID.TID 0000.0001)     ;
(PID.TID 0000.0001) usingPCoords =  /* use p (or p*) vertical coordinate */
(PID.TID 0000.0001)                   F
(PID.TID 0000.0001)     ;
(PID.TID 0000.0001) usingZCoords =  /* use z (or z*) vertical coordinate */
(PID.TID 0000.0001)                   T
(PID.TID 0000.0001)     ;
(PID.TID 0000.0001) tRef =   /* Reference temperature profile ( oC or K ) */
(PID.TID 0000.0001)    15 @  2.000000000000000E+01              /* K =  1: 15 */
(PID.TID 0000.0001)     ;
(PID.TID 0000.0001) sRef =   /* Reference salinity profile ( psu ) */
(PID.TID 0000.0001)    15 @  3.500000000000000E+01              /* K =  1: 15 */
(PID.TID 0000.0001)     ;
(PID.TID 0000.0001) viscAh =   /* Lateral eddy viscosity ( m^2/s ) */
(PID.TID 0000.0001)                 5.000000000000000E+05
(PID.TID 0000.0001)     ;
(PID.TID 0000.0001) viscAhMax =   /* Maximum lateral eddy viscosity ( m^2/s ) */
(PID.TID 0000.0001)                 1.000000000000000E+21
(PID.TID 0000.0001)     ;
(PID.TID 0000.0001) viscAhGrid =   /* Grid dependent lateral eddy viscosity ( non-dim. ) */
(PID.TID 0000.0001)                 0.000000000000000E+00
(PID.TID 0000.0001)     ;
(PID.TID 0000.0001) useFullLeith =   /* Use Full Form of Leith Viscosity on/off flag*/
(PID.TID 0000.0001)                   F
(PID.TID 0000.0001)     ;
(PID.TID 0000.0001) useStrainTensionVisc =   /* Use StrainTension Form of Viscous Operator on/off flag*/
(PID.TID 0000.0001)                   F
(PID.TID 0000.0001)     ;
(PID.TID 0000.0001) useAreaViscLength =   /* Use area for visc length instead of geom. mean*/
(PID.TID 0000.0001)                   F
(PID.TID 0000.0001)     ;
(PID.TID 0000.0001) viscC2leith = /* Leith harmonic visc. factor (on grad(vort),non-dim.) */
(PID.TID 0000.0001)                 0.000000000000000E+00
(PID.TID 0000.0001)     ;
(PID.TID 0000.0001) viscC2leithD = /* Leith harmonic viscosity factor (on grad(div),non-dim.) */
(PID.TID 0000.0001)                 0.000000000000000E+00
(PID.TID 0000.0001)     ;
(PID.TID 0000.0001) viscC2smag =   /* Smagorinsky harmonic viscosity factor (non-dim.) */
(PID.TID 0000.0001)                 0.000000000000000E+00
(PID.TID 0000.0001)     ;
(PID.TID 0000.0001) viscA4 =   /* Lateral biharmonic viscosity ( m^4/s ) */
(PID.TID 0000.0001)                 0.000000000000000E+00
(PID.TID 0000.0001)     ;
(PID.TID 0000.0001) viscA4Max =   /* Maximum biharmonic viscosity ( m^2/s ) */
(PID.TID 0000.0001)                 1.000000000000000E+21
(PID.TID 0000.0001)     ;
(PID.TID 0000.0001) viscA4Grid =   /* Grid dependent biharmonic viscosity ( non-dim. ) */
(PID.TID 0000.0001)                 0.000000000000000E+00
(PID.TID 0000.0001)     ;
(PID.TID 0000.0001) viscC4leith = /* Leith biharm viscosity factor (on grad(vort), non-dim.) */
(PID.TID 0000.0001)                 0.000000000000000E+00
(PID.TID 0000.0001)     ;
(PID.TID 0000.0001) viscC4leithD = /* Leith biharm viscosity factor (on grad(div), non-dim.) */
(PID.TID 0000.0001)                 0.000000000000000E+00
(PID.TID 0000.0001)     ;
(PID.TID 0000.0001) viscC4Smag = /* Smagorinsky biharm viscosity factor (non-dim) */
(PID.TID 0000.0001)                 0.000000000000000E+00
(PID.TID 0000.0001)     ;
(PID.TID 0000.0001) no_slip_sides =  /* Viscous BCs: No-slip sides */
(PID.TID 0000.0001)                   T
(PID.TID 0000.0001)     ;
(PID.TID 0000.0001) sideDragFactor = /* side-drag scaling factor (non-dim) */
(PID.TID 0000.0001)                 2.000000000000000E+00
(PID.TID 0000.0001)     ;
(PID.TID 0000.0001) viscAr =   /* Vertical eddy viscosity ( units of r^2/s ) */
(PID.TID 0000.0001)                 1.000000000000000E-03
(PID.TID 0000.0001)     ;
(PID.TID 0000.0001) no_slip_bottom =  /* Viscous BCs: No-slip bottom */
(PID.TID 0000.0001)                   T
(PID.TID 0000.0001)     ;
(PID.TID 0000.0001) bottomDragLinear = /* linear bottom-drag coefficient ( 1/s ) */
(PID.TID 0000.0001)                 0.000000000000000E+00
(PID.TID 0000.0001)     ;
(PID.TID 0000.0001) bottomDragQuadratic = /* quadratic bottom-drag coeff. ( 1/m ) */
(PID.TID 0000.0001)                 0.000000000000000E+00
(PID.TID 0000.0001)     ;
(PID.TID 0000.0001) diffKhT =   /* Laplacian diffusion of heat laterally ( m^2/s ) */
(PID.TID 0000.0001)                 0.000000000000000E+00
(PID.TID 0000.0001)     ;
(PID.TID 0000.0001) diffK4T =   /* Bihaarmonic diffusion of heat laterally ( m^4/s ) */
(PID.TID 0000.0001)                 0.000000000000000E+00
(PID.TID 0000.0001)     ;
(PID.TID 0000.0001) diffKhS =   /* Laplacian diffusion of salt laterally ( m^2/s ) */
(PID.TID 0000.0001)                 0.000000000000000E+00
(PID.TID 0000.0001)     ;
(PID.TID 0000.0001) diffK4S =   /* Bihaarmonic diffusion of salt laterally ( m^4/s ) */
(PID.TID 0000.0001)                 0.000000000000000E+00
(PID.TID 0000.0001)     ;
(PID.TID 0000.0001) diffKrNrT = /* vertical profile of vertical diffusion of Temp ( m^2/s )*/
(PID.TID 0000.0001)    15 @  3.000000000000000E-05              /* K =  1: 15 */
(PID.TID 0000.0001)     ;
(PID.TID 0000.0001) diffKrNrS = /* vertical profile of vertical diffusion of Salt ( m^2/s )*/
(PID.TID 0000.0001)    15 @  3.000000000000000E-05              /* K =  1: 15 */
(PID.TID 0000.0001)     ;
(PID.TID 0000.0001) diffKrBL79surf =   /* Surface diffusion for Bryan and Lewis 1979 ( m^2/s ) */
(PID.TID 0000.0001)                 0.000000000000000E+00
(PID.TID 0000.0001)     ;
(PID.TID 0000.0001) diffKrBL79deep =   /* Deep diffusion for Bryan and Lewis 1979 ( m^2/s ) */
(PID.TID 0000.0001)                 0.000000000000000E+00
(PID.TID 0000.0001)     ;
(PID.TID 0000.0001) diffKrBL79scl =   /* Depth scale for Bryan and Lewis 1979 ( m ) */
(PID.TID 0000.0001)                 2.000000000000000E+02
(PID.TID 0000.0001)     ;
(PID.TID 0000.0001) diffKrBL79Ho =   /* Turning depth for Bryan and Lewis 1979 ( m ) */
(PID.TID 0000.0001)                -2.000000000000000E+03
(PID.TID 0000.0001)     ;
(PID.TID 0000.0001) ivdc_kappa = /* Implicit Vertical Diffusivity for Convection ( m^2/s ) */
(PID.TID 0000.0001)                 1.000000000000000E+02
(PID.TID 0000.0001)     ;
(PID.TID 0000.0001) hMixCriteria=  /* Criteria for mixed-layer diagnostic */
(PID.TID 0000.0001)                -8.000000000000000E-01
(PID.TID 0000.0001)     ;
(PID.TID 0000.0001) eosType =  /* Type of Equation of State */
(PID.TID 0000.0001)               'JMD95Z'
(PID.TID 0000.0001)     ;
(PID.TID 0000.0001) tAlpha =   /* Linear EOS thermal expansion coefficient ( 1/oC ) */
(PID.TID 0000.0001)                 1.234567000000000E+05
(PID.TID 0000.0001)     ;
(PID.TID 0000.0001) sBeta =   /* Linear EOS haline contraction coefficient ( 1/psu ) */
(PID.TID 0000.0001)                 1.234567000000000E+05
(PID.TID 0000.0001)     ;
(PID.TID 0000.0001) rhonil =   /* Reference density ( kg/m^3 ) */
(PID.TID 0000.0001)                 1.035000000000000E+03
(PID.TID 0000.0001)     ;
(PID.TID 0000.0001) rhoConst =   /* Reference density ( kg/m^3 ) */
(PID.TID 0000.0001)                 1.035000000000000E+03
(PID.TID 0000.0001)     ;
(PID.TID 0000.0001) rhoFacC = /* normalized Reference density @ cell-Center (-) */
(PID.TID 0000.0001)    15 @  1.000000000000000E+00              /* K =  1: 15 */
(PID.TID 0000.0001)     ;
(PID.TID 0000.0001) rhoFacF = /* normalized Reference density @ W-Interface (-) */
(PID.TID 0000.0001)    16 @  1.000000000000000E+00              /* K =  1: 16 */
(PID.TID 0000.0001)     ;
(PID.TID 0000.0001) rhoConstFresh =   /* Reference density ( kg/m^3 ) */
(PID.TID 0000.0001)                 1.035000000000000E+03
(PID.TID 0000.0001)     ;
(PID.TID 0000.0001) gravity =   /* Gravitational acceleration ( m/s^2 ) */
(PID.TID 0000.0001)                 9.810000000000000E+00
(PID.TID 0000.0001)     ;
(PID.TID 0000.0001) gBaro =   /* Barotropic gravity ( m/s^2 ) */
(PID.TID 0000.0001)                 9.810000000000000E+00
(PID.TID 0000.0001)     ;
(PID.TID 0000.0001) rotationPeriod =   /* Rotation Period ( s ) */
(PID.TID 0000.0001)                 8.640000000000000E+04
(PID.TID 0000.0001)     ;
(PID.TID 0000.0001) omega =   /* Angular velocity ( rad/s ) */
(PID.TID 0000.0001)                 7.272205216643040E-05
(PID.TID 0000.0001)     ;
(PID.TID 0000.0001) f0 =   /* Reference coriolis parameter ( 1/s ) */
(PID.TID 0000.0001)                 1.000000000000000E-04
(PID.TID 0000.0001)     ;
(PID.TID 0000.0001) beta =   /* Beta ( 1/(m.s) ) */
(PID.TID 0000.0001)                 9.999999999999999E-12
(PID.TID 0000.0001)     ;
(PID.TID 0000.0001) freeSurfFac =   /* Implicit free surface factor */
(PID.TID 0000.0001)                 1.000000000000000E+00
(PID.TID 0000.0001)     ;
(PID.TID 0000.0001) implicitFreeSurface =   /* Implicit free surface on/off flag */
(PID.TID 0000.0001)                   T
(PID.TID 0000.0001)     ;
(PID.TID 0000.0001) rigidLid =   /* Rigid lid on/off flag */
(PID.TID 0000.0001)                   F
(PID.TID 0000.0001)     ;
(PID.TID 0000.0001) implicSurfPress =   /* Surface Pressure implicit factor (0-1)*/
(PID.TID 0000.0001)                 1.000000000000000E+00
(PID.TID 0000.0001)     ;
(PID.TID 0000.0001) implicDiv2Dflow =   /* Barot. Flow Div. implicit factor (0-1)*/
(PID.TID 0000.0001)                 1.000000000000000E+00
(PID.TID 0000.0001)     ;
(PID.TID 0000.0001) exactConserv =   /* Exact Volume Conservation on/off flag*/
(PID.TID 0000.0001)                   F
(PID.TID 0000.0001)     ;
(PID.TID 0000.0001) linFSConserveTr =   /* Tracer correction for Lin Free Surface on/off flag*/
(PID.TID 0000.0001)                   F
(PID.TID 0000.0001)     ;
(PID.TID 0000.0001) uniformLin_PhiSurf =   /* use uniform Bo_surf on/off flag*/
(PID.TID 0000.0001)                   T
(PID.TID 0000.0001)     ;
(PID.TID 0000.0001) nonlinFreeSurf =   /* Non-linear Free Surf. options (-1,0,1,2,3)*/
(PID.TID 0000.0001)                       0
(PID.TID 0000.0001)     ;
(PID.TID 0000.0001)      -1,0= Off ; 1,2,3= On, 2=+rescale gU,gV, 3=+update cg2d solv.
(PID.TID 0000.0001) hFacInf =   /* lower threshold for hFac (nonlinFreeSurf only)*/
(PID.TID 0000.0001)                 2.000000000000000E-01
(PID.TID 0000.0001)     ;
(PID.TID 0000.0001) hFacSup =   /* upper threshold for hFac (nonlinFreeSurf only)*/
(PID.TID 0000.0001)                 2.000000000000000E+00
(PID.TID 0000.0001)     ;
(PID.TID 0000.0001) select_rStar =   /* r* Coordinate options (not yet implemented)*/
(PID.TID 0000.0001)                       0
(PID.TID 0000.0001)     ;
(PID.TID 0000.0001) useRealFreshWaterFlux =   /* Real Fresh Water Flux on/off flag*/
(PID.TID 0000.0001)                   T
(PID.TID 0000.0001)     ;
(PID.TID 0000.0001) convertFW2Salt = /* convert F.W. Flux to Salt Flux (-1=use local S)(ppt)*/
(PID.TID 0000.0001)                -1.000000000000000E+00
(PID.TID 0000.0001)     ;
(PID.TID 0000.0001) use3Dsolver = /* use 3-D pressure solver on/off flag */
(PID.TID 0000.0001)                   F
(PID.TID 0000.0001)     ;
(PID.TID 0000.0001) nonHydrostatic =  /* Non-Hydrostatic on/off flag */
(PID.TID 0000.0001)                   F
(PID.TID 0000.0001)     ;
(PID.TID 0000.0001) nh_Am2 = /* Non-Hydrostatic terms scaling factor */
(PID.TID 0000.0001)                 1.000000000000000E+00
(PID.TID 0000.0001)     ;
(PID.TID 0000.0001) quasiHydrostatic = /* Quasi-Hydrostatic on/off flag */
(PID.TID 0000.0001)                   F
(PID.TID 0000.0001)     ;
(PID.TID 0000.0001) momStepping =  /* Momentum equation on/off flag */
(PID.TID 0000.0001)                   T
(PID.TID 0000.0001)     ;
(PID.TID 0000.0001) vectorInvariantMomentum= /* Vector-Invariant Momentum on/off */
(PID.TID 0000.0001)                   F
(PID.TID 0000.0001)     ;
(PID.TID 0000.0001) momAdvection =  /* Momentum advection on/off flag */
(PID.TID 0000.0001)                   T
(PID.TID 0000.0001)     ;
(PID.TID 0000.0001) momViscosity =  /* Momentum viscosity on/off flag */
(PID.TID 0000.0001)                   T
(PID.TID 0000.0001)     ;
(PID.TID 0000.0001) momImplVertAdv =/* Momentum implicit vert. advection on/off*/
(PID.TID 0000.0001)                   F
(PID.TID 0000.0001)     ;
(PID.TID 0000.0001) implicitViscosity = /* Implicit viscosity on/off flag */
(PID.TID 0000.0001)                   F
(PID.TID 0000.0001)     ;
(PID.TID 0000.0001) metricTerms =  /* metric-Terms on/off flag */
(PID.TID 0000.0001)                   T
(PID.TID 0000.0001)     ;
(PID.TID 0000.0001) useNHMTerms = /* Non-Hydrostatic Metric-Terms on/off */
(PID.TID 0000.0001)                   F
(PID.TID 0000.0001)     ;
(PID.TID 0000.0001) useConstantF =  /* use Constant f0 Coriolis flag */
(PID.TID 0000.0001)                   F
(PID.TID 0000.0001)     ;
(PID.TID 0000.0001) useBetaPlaneF = /* use Beta-Plane Coriolis flag */
(PID.TID 0000.0001)                   F
(PID.TID 0000.0001)     ;
(PID.TID 0000.0001) useSphereF  =   /* use Spherical Coriolis flag */
(PID.TID 0000.0001)                   T
(PID.TID 0000.0001)     ;
(PID.TID 0000.0001) use3dCoriolis = /* 3-D Coriolis on/off flag */
(PID.TID 0000.0001)                   F
(PID.TID 0000.0001)     ;
(PID.TID 0000.0001) useCoriolis =  /* Coriolis on/off flag */
(PID.TID 0000.0001)                   T
(PID.TID 0000.0001)     ;
(PID.TID 0000.0001) useCDscheme =  /* CD scheme on/off flag */
(PID.TID 0000.0001)                   T
(PID.TID 0000.0001)     ;
(PID.TID 0000.0001) useJamartWetPoints= /* Coriolis WetPoints method flag */
(PID.TID 0000.0001)                   F
(PID.TID 0000.0001)     ;
(PID.TID 0000.0001) useJamartMomAdv= /* V.I. Non-linear terms Jamart flag */
(PID.TID 0000.0001)                   F
(PID.TID 0000.0001)     ;
(PID.TID 0000.0001) SadournyCoriolis= /* Sadourny Coriolis discr. flag */
(PID.TID 0000.0001)                   F
(PID.TID 0000.0001)     ;
(PID.TID 0000.0001) upwindVorticity= /* Upwind bias vorticity flag */
(PID.TID 0000.0001)                   F
(PID.TID 0000.0001)     ;
(PID.TID 0000.0001) useAbsVorticity= /* Work with f+zeta in Coriolis */
(PID.TID 0000.0001)                   F
(PID.TID 0000.0001)     ;
(PID.TID 0000.0001) highOrderVorticity= /* High order interp. of vort. flag */
(PID.TID 0000.0001)                   F
(PID.TID 0000.0001)     ;
(PID.TID 0000.0001) upwindShear= /* Upwind vertical Shear advection flag */
(PID.TID 0000.0001)                   F
(PID.TID 0000.0001)     ;
(PID.TID 0000.0001) selectKEscheme= /* Kinetic Energy scheme selector */
(PID.TID 0000.0001)                       0
(PID.TID 0000.0001)     ;
(PID.TID 0000.0001) momForcing =  /* Momentum forcing on/off flag */
(PID.TID 0000.0001)                   T
(PID.TID 0000.0001)     ;
(PID.TID 0000.0001) momPressureForcing =  /* Momentum pressure term on/off flag */
(PID.TID 0000.0001)                   T
(PID.TID 0000.0001)     ;
(PID.TID 0000.0001) implicitIntGravWave= /* Implicit Internal Gravity Wave flag */
(PID.TID 0000.0001)                   F
(PID.TID 0000.0001)     ;
(PID.TID 0000.0001) staggerTimeStep =   /* Stagger time stepping on/off flag */
(PID.TID 0000.0001)                   F
(PID.TID 0000.0001)     ;
(PID.TID 0000.0001) multiDimAdvection =   /* enable/disable Multi-Dim Advection */
(PID.TID 0000.0001)                   T
(PID.TID 0000.0001)     ;
(PID.TID 0000.0001) useMultiDimAdvec =   /* Multi-Dim Advection is/is-not used */
(PID.TID 0000.0001)                   F
(PID.TID 0000.0001)     ;
(PID.TID 0000.0001) implicitDiffusion =/* Implicit Diffusion on/off flag */
(PID.TID 0000.0001)                   T
(PID.TID 0000.0001)     ;
(PID.TID 0000.0001) tempStepping =  /* Temperature equation on/off flag */
(PID.TID 0000.0001)                   T
(PID.TID 0000.0001)     ;
(PID.TID 0000.0001) tempAdvection=  /* Temperature advection on/off flag */
(PID.TID 0000.0001)                   T
(PID.TID 0000.0001)     ;
(PID.TID 0000.0001) tempImplVertAdv =/* Temp. implicit vert. advection on/off */
(PID.TID 0000.0001)                   F
(PID.TID 0000.0001)     ;
(PID.TID 0000.0001) tempForcing  =  /* Temperature forcing on/off flag */
(PID.TID 0000.0001)                   T
(PID.TID 0000.0001)     ;
(PID.TID 0000.0001) saltStepping =  /* Salinity equation on/off flag */
(PID.TID 0000.0001)                   T
(PID.TID 0000.0001)     ;
(PID.TID 0000.0001) saltAdvection=  /* Salinity advection on/off flag */
(PID.TID 0000.0001)                   T
(PID.TID 0000.0001)     ;
(PID.TID 0000.0001) saltImplVertAdv =/* Sali. implicit vert. advection on/off */
(PID.TID 0000.0001)                   F
(PID.TID 0000.0001)     ;
(PID.TID 0000.0001) saltForcing  =  /* Salinity forcing on/off flag */
(PID.TID 0000.0001)                   T
(PID.TID 0000.0001)     ;
(PID.TID 0000.0001)  readBinaryPrec = /* Precision used for reading binary files */
(PID.TID 0000.0001)                      32
(PID.TID 0000.0001)     ;
(PID.TID 0000.0001) writeBinaryPrec = /* Precision used for writing binary files */
(PID.TID 0000.0001)                      32
(PID.TID 0000.0001)     ;
(PID.TID 0000.0001)  globalFiles = /* write "global" (=not per tile) files */
(PID.TID 0000.0001)                   F
(PID.TID 0000.0001)     ;
(PID.TID 0000.0001)  useSingleCpuIO = /* only master MPI process does I/O */
(PID.TID 0000.0001)                   F
(PID.TID 0000.0001)     ;
(PID.TID 0000.0001)  debugMode  =  /* Debug Mode on/off flag */
(PID.TID 0000.0001)                   F
(PID.TID 0000.0001)     ;
(PID.TID 0000.0001)    debLevA  =  /* 1rst level of debugging */
(PID.TID 0000.0001)                       1
(PID.TID 0000.0001)     ;
(PID.TID 0000.0001)    debLevB  =  /* 2nd  level of debugging */
(PID.TID 0000.0001)                       2
(PID.TID 0000.0001)     ;
(PID.TID 0000.0001)  debugLevel =  /* select debugging level */
(PID.TID 0000.0001)                       1
(PID.TID 0000.0001)     ;
(PID.TID 0000.0001) //
(PID.TID 0000.0001) // Elliptic solver(s) paramters ( PARM02 in namelist )
(PID.TID 0000.0001) //
(PID.TID 0000.0001) cg2dMaxIters =   /* Upper limit on 2d con. grad iterations  */
(PID.TID 0000.0001)                     500
(PID.TID 0000.0001)     ;
(PID.TID 0000.0001) cg2dChkResFreq =   /* 2d con. grad convergence test frequency */
(PID.TID 0000.0001)                       1
(PID.TID 0000.0001)     ;
(PID.TID 0000.0001) cg2dTargetResidual =   /* 2d con. grad target residual  */
(PID.TID 0000.0001)                 1.000000000000000E-13
(PID.TID 0000.0001)     ;
(PID.TID 0000.0001) cg2dTargetResWunit =   /* CG2d target residual [W units] */
(PID.TID 0000.0001)                -1.000000000000000E+00
(PID.TID 0000.0001)     ;
(PID.TID 0000.0001) cg2dPreCondFreq =   /* Freq. for updating cg2d preconditioner */
(PID.TID 0000.0001)                       1
(PID.TID 0000.0001)     ;
(PID.TID 0000.0001) //
(PID.TID 0000.0001) // Time stepping paramters ( PARM03 in namelist )
(PID.TID 0000.0001) //
(PID.TID 0000.0001) nIter0 =   /* Run starting timestep number  */
(PID.TID 0000.0001)                       0
(PID.TID 0000.0001)     ;
(PID.TID 0000.0001) nTimeSteps =   /* Number of timesteps */
(PID.TID 0000.0001)                      10
(PID.TID 0000.0001)     ;
(PID.TID 0000.0001) deltaTmom =   /* Momentum equation timestep ( s ) */
(PID.TID 0000.0001)                 1.200000000000000E+03
(PID.TID 0000.0001)     ;
(PID.TID 0000.0001) deltaTfreesurf =   /* FreeSurface equation timestep ( s ) */
(PID.TID 0000.0001)                 1.200000000000000E+03
(PID.TID 0000.0001)     ;
(PID.TID 0000.0001) dTtracerLev =   /* Tracer equation timestep ( s ) */
(PID.TID 0000.0001)    15 @  4.320000000000000E+04              /* K =  1: 15 */
(PID.TID 0000.0001)     ;
(PID.TID 0000.0001) deltaTClock  =   /* Model clock timestep ( s ) */
(PID.TID 0000.0001)                 4.320000000000000E+04
(PID.TID 0000.0001)     ;
(PID.TID 0000.0001) cAdjFreq =   /* Convective adjustment interval ( s ) */
(PID.TID 0000.0001)                 0.000000000000000E+00
(PID.TID 0000.0001)     ;
(PID.TID 0000.0001) momForcingOutAB = /* =1: take Momentum Forcing out of Adams-Bash. stepping */
(PID.TID 0000.0001)                       0
(PID.TID 0000.0001)     ;
(PID.TID 0000.0001) tracForcingOutAB = /* =1: take T,S,pTr Forcing out of Adams-Bash. stepping */
(PID.TID 0000.0001)                       0
(PID.TID 0000.0001)     ;
(PID.TID 0000.0001) momDissip_In_AB = /* put Dissipation Tendency in Adams-Bash. stepping */
(PID.TID 0000.0001)                   T
(PID.TID 0000.0001)     ;
(PID.TID 0000.0001) doAB_onGtGs = /* apply AB on Tendencies (rather than on T,S)*/
(PID.TID 0000.0001)                   T
(PID.TID 0000.0001)     ;
(PID.TID 0000.0001) abEps =   /* Adams-Bashforth-2 stabilizing weight */
(PID.TID 0000.0001)                 1.000000000000000E-01
(PID.TID 0000.0001)     ;
(PID.TID 0000.0001) tauCD =   /* CD coupling time-scale ( s ) */
(PID.TID 0000.0001)                 3.214280000000000E+05
(PID.TID 0000.0001)     ;
(PID.TID 0000.0001) rCD =   /* Normalised CD coupling parameter */
(PID.TID 0000.0001)                 9.962666600296178E-01
(PID.TID 0000.0001)     ;
(PID.TID 0000.0001) baseTime =   /* Model base time ( s ). */
(PID.TID 0000.0001)                 0.000000000000000E+00
(PID.TID 0000.0001)     ;
(PID.TID 0000.0001) startTime =   /* Run start time ( s ). */
(PID.TID 0000.0001)                 0.000000000000000E+00
(PID.TID 0000.0001)     ;
(PID.TID 0000.0001) endTime =   /* Integration ending time ( s ). */
(PID.TID 0000.0001)                 4.320000000000000E+05
(PID.TID 0000.0001)     ;
(PID.TID 0000.0001) pChkPtFreq =   /* Permanent restart/checkpoint file interval ( s ). */
(PID.TID 0000.0001)                 3.110400000000000E+08
(PID.TID 0000.0001)     ;
(PID.TID 0000.0001) chkPtFreq =   /* Rolling restart/checkpoint file interval ( s ). */
(PID.TID 0000.0001)                 0.000000000000000E+00
(PID.TID 0000.0001)     ;
(PID.TID 0000.0001) pickup_write_mdsio =   /* Model IO flag. */
(PID.TID 0000.0001)                   T
(PID.TID 0000.0001)     ;
(PID.TID 0000.0001) pickup_read_mdsio =   /* Model IO flag. */
(PID.TID 0000.0001)                   T
(PID.TID 0000.0001)     ;
(PID.TID 0000.0001) pickup_write_mnc =   /* Model IO flag. */
(PID.TID 0000.0001)                   F
(PID.TID 0000.0001)     ;
(PID.TID 0000.0001) pickup_read_mnc =   /* Model IO flag. */
(PID.TID 0000.0001)                   F
(PID.TID 0000.0001)     ;
(PID.TID 0000.0001) pickup_write_immed =   /* Model IO flag. */
(PID.TID 0000.0001)                   F
(PID.TID 0000.0001)     ;
(PID.TID 0000.0001) dumpFreq =   /* Model state write out interval ( s ). */
(PID.TID 0000.0001)                 2.592000000000000E+06
(PID.TID 0000.0001)     ;
(PID.TID 0000.0001) dumpInitAndLast= /* write out Initial & Last iter. model state */
(PID.TID 0000.0001)                   T
(PID.TID 0000.0001)     ;
(PID.TID 0000.0001) snapshot_mdsio =   /* Model IO flag. */
(PID.TID 0000.0001)                   T
(PID.TID 0000.0001)     ;
(PID.TID 0000.0001) snapshot_mnc =   /* Model IO flag. */
(PID.TID 0000.0001)                   F
(PID.TID 0000.0001)     ;
(PID.TID 0000.0001) monitorFreq =   /* Monitor output interval ( s ). */
(PID.TID 0000.0001)                 2.592000000000000E+06
(PID.TID 0000.0001)     ;
(PID.TID 0000.0001) monitor_stdio =   /* Model IO flag. */
(PID.TID 0000.0001)                   T
(PID.TID 0000.0001)     ;
(PID.TID 0000.0001) monitor_mnc =   /* Model IO flag. */
(PID.TID 0000.0001)                   F
(PID.TID 0000.0001)     ;
(PID.TID 0000.0001) externForcingPeriod =   /* forcing period (s) */
(PID.TID 0000.0001)                 2.592000000000000E+06
(PID.TID 0000.0001)     ;
(PID.TID 0000.0001) externForcingCycle =   /* period of the cyle (s). */
(PID.TID 0000.0001)                 3.110400000000000E+07
(PID.TID 0000.0001)     ;
(PID.TID 0000.0001) tauThetaClimRelax =   /* relaxation time scale (s) */
(PID.TID 0000.0001)                 5.184000000000000E+06
(PID.TID 0000.0001)     ;
(PID.TID 0000.0001) tauSaltClimRelax =   /* relaxation time scale (s) */
(PID.TID 0000.0001)                 1.555200000000000E+07
(PID.TID 0000.0001)     ;
(PID.TID 0000.0001) latBandClimRelax =   /* max. Lat. where relaxation */
(PID.TID 0000.0001)                 1.800000000000000E+02
(PID.TID 0000.0001)     ;
(PID.TID 0000.0001) //
(PID.TID 0000.0001) // Gridding paramters ( PARM04 in namelist )
(PID.TID 0000.0001) //
(PID.TID 0000.0001) usingCartesianGrid = /* Cartesian coordinates flag ( True/False ) */
(PID.TID 0000.0001)                   F
(PID.TID 0000.0001)     ;
(PID.TID 0000.0001) usingCylindricalGrid = /* Cylindrical coordinates flag ( True/False ) */
(PID.TID 0000.0001)                   F
(PID.TID 0000.0001)     ;
(PID.TID 0000.0001) usingSphericalPolarGrid = /* Spherical coordinates flag ( True/False ) */
(PID.TID 0000.0001)                   T
(PID.TID 0000.0001)     ;
(PID.TID 0000.0001) usingCurvilinearGrid = /* Curvilinear coordinates flag ( True/False ) */
(PID.TID 0000.0001)                   F
(PID.TID 0000.0001)     ;
(PID.TID 0000.0001) Ro_SeaLevel = /* r(1) ( units of r ) */
(PID.TID 0000.0001)                 0.000000000000000E+00
(PID.TID 0000.0001)     ;
(PID.TID 0000.0001) rkSign =   /* index orientation relative to vertical coordinate */
(PID.TID 0000.0001)                -1.000000000000000E+00
(PID.TID 0000.0001)     ;
(PID.TID 0000.0001) gravitySign = /* gravity orientation relative to vertical coordinate */
(PID.TID 0000.0001)                -1.000000000000000E+00
(PID.TID 0000.0001)     ;
(PID.TID 0000.0001) horiVertRatio =   /* Ratio on units : Horiz - Vertical */
(PID.TID 0000.0001)                 1.000000000000000E+00
(PID.TID 0000.0001)     ;
(PID.TID 0000.0001) drC =   /* C spacing ( units of r ) */
(PID.TID 0000.0001)                 2.500000000000000E+01,      /* K =  1 */
(PID.TID 0000.0001)                 6.000000000000000E+01,      /* K =  2 */
(PID.TID 0000.0001)                 8.500000000000000E+01,      /* K =  3 */
(PID.TID 0000.0001)                 1.200000000000000E+02,      /* K =  4 */
(PID.TID 0000.0001)                 1.650000000000000E+02,      /* K =  5 */
(PID.TID 0000.0001)                 2.150000000000000E+02,      /* K =  6 */
(PID.TID 0000.0001)                 2.650000000000000E+02,      /* K =  7 */
(PID.TID 0000.0001)                 3.150000000000000E+02,      /* K =  8 */
(PID.TID 0000.0001)                 3.650000000000000E+02,      /* K =  9 */
(PID.TID 0000.0001)                 4.150000000000000E+02,      /* K = 10 */
(PID.TID 0000.0001)                 4.650000000000000E+02,      /* K = 11 */
(PID.TID 0000.0001)                 5.150000000000000E+02,      /* K = 12 */
(PID.TID 0000.0001)                 5.650000000000000E+02,      /* K = 13 */
(PID.TID 0000.0001)                 6.150000000000000E+02,      /* K = 14 */
(PID.TID 0000.0001)                 6.650000000000000E+02       /* K = 15 */
(PID.TID 0000.0001)     ;
(PID.TID 0000.0001) drF =   /* W spacing ( units of r ) */
(PID.TID 0000.0001)                 5.000000000000000E+01,      /* K =  1 */
(PID.TID 0000.0001)                 7.000000000000000E+01,      /* K =  2 */
(PID.TID 0000.0001)                 1.000000000000000E+02,      /* K =  3 */
(PID.TID 0000.0001)                 1.400000000000000E+02,      /* K =  4 */
(PID.TID 0000.0001)                 1.900000000000000E+02,      /* K =  5 */
(PID.TID 0000.0001)                 2.400000000000000E+02,      /* K =  6 */
(PID.TID 0000.0001)                 2.900000000000000E+02,      /* K =  7 */
(PID.TID 0000.0001)                 3.400000000000000E+02,      /* K =  8 */
(PID.TID 0000.0001)                 3.900000000000000E+02,      /* K =  9 */
(PID.TID 0000.0001)                 4.400000000000000E+02,      /* K = 10 */
(PID.TID 0000.0001)                 4.900000000000000E+02,      /* K = 11 */
(PID.TID 0000.0001)                 5.400000000000000E+02,      /* K = 12 */
(PID.TID 0000.0001)                 5.900000000000000E+02,      /* K = 13 */
(PID.TID 0000.0001)                 6.400000000000000E+02,      /* K = 14 */
(PID.TID 0000.0001)                 6.900000000000000E+02       /* K = 15 */
(PID.TID 0000.0001)     ;
(PID.TID 0000.0001) delX =   /* U spacing ( m - cartesian, degrees - spherical ) */
(PID.TID 0000.0001)    90 @  4.000000000000000E+00              /* I =  1: 90 */
(PID.TID 0000.0001)     ;
(PID.TID 0000.0001) delY =   /* V spacing ( m - cartesian, degrees - spherical ) */
(PID.TID 0000.0001)    40 @  4.000000000000000E+00              /* J =  1: 40 */
(PID.TID 0000.0001)     ;
(PID.TID 0000.0001) phiMin =    /* South edge (ignored - cartesian, degrees - spherical ) */
(PID.TID 0000.0001)                -8.000000000000000E+01
(PID.TID 0000.0001)     ;
(PID.TID 0000.0001) thetaMin =    /* West edge ( ignored - cartesian, degrees - spherical ) */
(PID.TID 0000.0001)                 0.000000000000000E+00
(PID.TID 0000.0001)     ;
(PID.TID 0000.0001) rSphere =  /* Radius ( ignored - cartesian, m - spherical ) */
(PID.TID 0000.0001)                 6.370000000000000E+06
(PID.TID 0000.0001)     ;
(PID.TID 0000.0001) deepAtmosphere = /* Deep/Shallow Atmosphere flag (True/False) */
(PID.TID 0000.0001)                   F
(PID.TID 0000.0001)     ;
(PID.TID 0000.0001) xcoord =   /* P-point X coord ( m - cartesian, degrees - spherical ) */
(PID.TID 0000.0001)                 2.000000000000000E+00,      /* I =  1 */
(PID.TID 0000.0001)                 6.000000000000000E+00,      /* I =  2 */
(PID.TID 0000.0001)                 1.000000000000000E+01,      /* I =  3 */
(PID.TID 0000.0001)                 1.400000000000000E+01,      /* I =  4 */
(PID.TID 0000.0001)                 1.800000000000000E+01,      /* I =  5 */
(PID.TID 0000.0001)                 2.200000000000000E+01,      /* I =  6 */
(PID.TID 0000.0001)                 2.600000000000000E+01,      /* I =  7 */
(PID.TID 0000.0001)                 3.000000000000000E+01,      /* I =  8 */
(PID.TID 0000.0001)                 3.400000000000000E+01,      /* I =  9 */
(PID.TID 0000.0001)                 3.800000000000000E+01,      /* I = 10 */
(PID.TID 0000.0001)                 4.200000000000000E+01,      /* I = 11 */
(PID.TID 0000.0001)                 4.600000000000000E+01,      /* I = 12 */
(PID.TID 0000.0001)                 5.000000000000000E+01,      /* I = 13 */
(PID.TID 0000.0001)                 5.400000000000000E+01,      /* I = 14 */
(PID.TID 0000.0001)                 5.800000000000000E+01,      /* I = 15 */
(PID.TID 0000.0001)                 6.200000000000000E+01,      /* I = 16 */
(PID.TID 0000.0001)                 6.600000000000000E+01,      /* I = 17 */
(PID.TID 0000.0001)                 7.000000000000000E+01,      /* I = 18 */
(PID.TID 0000.0001)                 7.400000000000000E+01,      /* I = 19 */
(PID.TID 0000.0001)                 7.800000000000000E+01,      /* I = 20 */
(PID.TID 0000.0001)                 8.200000000000000E+01,      /* I = 21 */
(PID.TID 0000.0001)                 8.600000000000000E+01,      /* I = 22 */
(PID.TID 0000.0001)                 9.000000000000000E+01,      /* I = 23 */
(PID.TID 0000.0001)                 9.400000000000000E+01,      /* I = 24 */
(PID.TID 0000.0001)                 9.800000000000000E+01,      /* I = 25 */
(PID.TID 0000.0001)                 1.020000000000000E+02,      /* I = 26 */
(PID.TID 0000.0001)                 1.060000000000000E+02,      /* I = 27 */
(PID.TID 0000.0001)                 1.100000000000000E+02,      /* I = 28 */
(PID.TID 0000.0001)                 1.140000000000000E+02,      /* I = 29 */
(PID.TID 0000.0001)                 1.180000000000000E+02,      /* I = 30 */
(PID.TID 0000.0001)                 1.220000000000000E+02,      /* I = 31 */
(PID.TID 0000.0001)                 1.260000000000000E+02,      /* I = 32 */
(PID.TID 0000.0001)                 1.300000000000000E+02,      /* I = 33 */
(PID.TID 0000.0001)                 1.340000000000000E+02,      /* I = 34 */
(PID.TID 0000.0001)                 1.380000000000000E+02,      /* I = 35 */
(PID.TID 0000.0001)                 1.420000000000000E+02,      /* I = 36 */
(PID.TID 0000.0001)                 1.460000000000000E+02,      /* I = 37 */
(PID.TID 0000.0001)                 1.500000000000000E+02,      /* I = 38 */
(PID.TID 0000.0001)                 1.540000000000000E+02,      /* I = 39 */
(PID.TID 0000.0001)                 1.580000000000000E+02,      /* I = 40 */
(PID.TID 0000.0001)                 1.620000000000000E+02,      /* I = 41 */
(PID.TID 0000.0001)                 1.660000000000000E+02,      /* I = 42 */
(PID.TID 0000.0001)                 1.700000000000000E+02,      /* I = 43 */
(PID.TID 0000.0001)                 1.740000000000000E+02,      /* I = 44 */
(PID.TID 0000.0001)                 1.780000000000000E+02,      /* I = 45 */
(PID.TID 0000.0001)                 1.820000000000000E+02,      /* I = 46 */
(PID.TID 0000.0001)                 1.860000000000000E+02,      /* I = 47 */
(PID.TID 0000.0001)                 1.900000000000000E+02,      /* I = 48 */
(PID.TID 0000.0001)                 1.940000000000000E+02,      /* I = 49 */
(PID.TID 0000.0001)                 1.980000000000000E+02,      /* I = 50 */
(PID.TID 0000.0001)                 2.020000000000000E+02,      /* I = 51 */
(PID.TID 0000.0001)                 2.060000000000000E+02,      /* I = 52 */
(PID.TID 0000.0001)                 2.100000000000000E+02,      /* I = 53 */
(PID.TID 0000.0001)                 2.140000000000000E+02,      /* I = 54 */
[...]
(PID.TID 0000.0001)     13 uuut....ttttttttuuuuuvtuuuuuu.........ttttuutttttttuutsssstttttstsqrqqppp....uwwwvuvvvutvv
(PID.TID 0000.0001)     12 ttttttttttttttttttttttssuuuuutuuut....tttttttttttsssssrrrrrrrqqqqqppppoo.....rvvuuttttttuu
(PID.TID 0000.0001)     11 rqsttttttttuuttttsssssrrstttttttsss..ttttts.tsssrrrrqqqqqppppoonnooooooo....oruttttsssrqrs
(PID.TID 0000.0001)     10 pppqrssrqqrqpqrssrrqqqqqqrrrrrrrrrrs.sssssr.rssrrqqpppppppooooonnnoooonn..moqrrrqqqqqqqqqq
(PID.TID 0000.0001)      9 oonooooooooonnnooooooooooppppppqqqqqrrrqrq.pppqqqqqppppppppppoooooooooll.lmoqqqqppooooopoo
(PID.TID 0000.0001)      8 nnnoonooooooonnnnnnnoooonoonoooppopqqqqqqqppopppqqqpppppppppppppppooopon.lnopppoooonnnnooo
(PID.TID 0000.0001)      7 ooooooooooopponnnooooooonnnnnonnooooooooopppppppoooooooooopppppppppoopqnnmnoooonnnonnnnnno
(PID.TID 0000.0001)      6 oooonnoonnnnooooooooooooonnnnnnnnnnnnnnnnoooopppooooooooooooooppppppppppoooooooonnnnnmnnnn
(PID.TID 0000.0001)      5 oooonnnnnnnnnnnnnnnnnoooooonnnnnnonnnnnnnnnoooooooooooonnnnnnooooooopoooonoooonnnnnnnooooo
(PID.TID 0000.0001)      4 oooonnnooonnnnnnnnnnnnnnoooooonnnooooonnnooooooooppponnnnmmmnnnnmnnoonnnnn..nnnooooooooooo
(PID.TID 0000.0001)      3 ooonnnnnnn............................nnoooooonnooooonnnnnnnoonnnnnnnnmmm..ooopooooooooooo
(PID.TID 0000.0001)      2 ..........................................pppooooonnnnnnoooppppo..nnnn.....qqqpppoooooo...
(PID.TID 0000.0001)      1 ..........................................................................................
(PID.TID 0000.0001) // =======================================================
(PID.TID 0000.0001) // END OF FIELD                                          =
(PID.TID 0000.0001) // =======================================================
(PID.TID 0000.0001) 
(PID.TID 0000.0001) Start initial hydrostatic pressure computation
(PID.TID 0000.0001) Pressure is predetermined for buoyancyRelation OCEANIC
(PID.TID 0000.0001) 
(PID.TID 0000.0001)  MDS_READ_FIELD: opening global file: trenberth_taux.bin
(PID.TID 0000.0001)  MDS_READ_FIELD: opening global file: trenberth_tauy.bin
(PID.TID 0000.0001)  MDS_READ_FIELD: opening global file: ncep_qnet.bin
(PID.TID 0000.0001)  MDS_READ_FIELD: opening global file: lev_sst.bin
(PID.TID 0000.0001)  MDS_READ_FIELD: opening global file: lev_sss.bin
(PID.TID 0000.0001)  MDS_READ_FIELD: opening file: xx_theta.0000000000.001.001.data
(PID.TID 0000.0001)  MDS_READ_FIELD: opening file: xx_salt.0000000000.001.001.data
(PID.TID 0000.0001)  MDS_READ_FIELD: opening file: xx_diffkr.0000000000.001.001.data
(PID.TID 0000.0001)  MDS_READ_FIELD: opening file: xx_kapgm.0000000000.001.001.data
(PID.TID 0000.0001) // =======================================================
(PID.TID 0000.0001) // Model current state
(PID.TID 0000.0001) // =======================================================
(PID.TID 0000.0001) 
S/R EXTERNAL_FIELDS_LOAD: Reading new data:   12    1         0  0.000000000000E+00
(PID.TID 0000.0001)  MDS_READ_FIELD: opening global file: trenberth_taux.bin
(PID.TID 0000.0001)  MDS_READ_FIELD: opening global file: trenberth_taux.bin
(PID.TID 0000.0001)  MDS_READ_FIELD: opening global file: trenberth_tauy.bin
(PID.TID 0000.0001)  MDS_READ_FIELD: opening global file: trenberth_tauy.bin
(PID.TID 0000.0001)  MDS_READ_FIELD: opening global file: ncep_qnet.bin
(PID.TID 0000.0001)  MDS_READ_FIELD: opening global file: ncep_qnet.bin
(PID.TID 0000.0001)  MDS_READ_FIELD: opening global file: lev_sst.bin
(PID.TID 0000.0001)  MDS_READ_FIELD: opening global file: lev_sst.bin
(PID.TID 0000.0001)  MDS_READ_FIELD: opening global file: lev_sss.bin
(PID.TID 0000.0001)  MDS_READ_FIELD: opening global file: lev_sss.bin
time,SST,SSS,fu,fv,Q,E-P,i0,i1,a,b =   0.0000E+00  5.3151E-02  3.4364E+01 -4.0500E-02 -6.3753E-02  2.6510E+02  0.0000E+00    12     1  5.0000E-01  5.0000E-01
time,fu0,fu1,fu =   0.0000E+00 -4.5368E-02 -3.5633E-02 -4.0500E-02  5.000000000000000E-01  5.000000000000000E-01
 cg2d: Sum(rhs),rhsMax =   7.04297731246584E-15  2.53674886388737E+00
time,SST,SSS,fu,fv,Q,E-P,i0,i1,a,b =   4.3200E+04  8.3327E-02  3.4375E+01 -4.0338E-02 -6.3536E-02  2.6512E+02  0.0000E+00    12     1  5.1667E-01  4.8333E-01
time,fu0,fu1,fu =   4.3200E+04 -4.5368E-02 -3.5633E-02 -4.0338E-02  5.166666666666667E-01  4.833333333333333E-01
 cg2d: Sum(rhs),rhsMax =   2.86298762475212E-14  5.05253091016064E+00
time,SST,SSS,fu,fv,Q,E-P,i0,i1,a,b =   8.6400E+04  1.1350E-01  3.4387E+01 -4.0176E-02 -6.3320E-02  2.6514E+02  0.0000E+00    12     1  5.3333E-01  4.6667E-01
time,fu0,fu1,fu =   8.6400E+04 -4.5368E-02 -3.5633E-02 -4.0176E-02  5.333333333333333E-01  4.666666666666667E-01
 cg2d: Sum(rhs),rhsMax =   5.22533405433734E-14  6.31162663841038E+00
time,SST,SSS,fu,fv,Q,E-P,i0,i1,a,b =   1.2960E+05  1.4368E-01  3.4399E+01 -4.0014E-02 -6.3103E-02  2.6516E+02  0.0000E+00    12     1  5.5000E-01  4.5000E-01
time,fu0,fu1,fu =   1.2960E+05 -4.5368E-02 -3.5633E-02 -4.0014E-02  5.500000000000000E-01  4.500000000000000E-01
 cg2d: Sum(rhs),rhsMax =   8.68853600177744E-14  6.72990407529372E+00
time,SST,SSS,fu,fv,Q,E-P,i0,i1,a,b =   1.7280E+05  1.7385E-01  3.4410E+01 -3.9851E-02 -6.2886E-02  2.6519E+02  0.0000E+00    12     1  5.6667E-01  4.3333E-01
time,fu0,fu1,fu =   1.7280E+05 -4.5368E-02 -3.5633E-02 -3.9851E-02  5.666666666666667E-01  4.333333333333333E-01
 cg2d: Sum(rhs),rhsMax =   7.73617281346617E-14  6.86221738170402E+00
time,SST,SSS,fu,fv,Q,E-P,i0,i1,a,b =   2.1600E+05  2.0403E-01  3.4422E+01 -3.9689E-02 -6.2670E-02  2.6521E+02  0.0000E+00    12     1  5.8333E-01  4.1667E-01
time,fu0,fu1,fu =   2.1600E+05 -4.5368E-02 -3.5633E-02 -3.9689E-02  5.833333333333334E-01  4.166666666666666E-01
 cg2d: Sum(rhs),rhsMax =  -9.19854470371462E-14  6.89863900870773E+00
time,SST,SSS,fu,fv,Q,E-P,i0,i1,a,b =   2.5920E+05  2.3421E-01  3.4434E+01 -3.9527E-02 -6.2453E-02  2.6523E+02  0.0000E+00    12     1  6.0000E-01  4.0000E-01
time,fu0,fu1,fu =   2.5920E+05 -4.5368E-02 -3.5633E-02 -3.9527E-02  6.000000000000000E-01  4.000000000000000E-01
 cg2d: Sum(rhs),rhsMax =  -6.80107012374087E-14  7.21862564852006E+00
time,SST,SSS,fu,fv,Q,E-P,i0,i1,a,b =   3.0240E+05  2.6438E-01  3.4446E+01 -3.9365E-02 -6.2237E-02  2.6525E+02  0.0000E+00    12     1  6.1667E-01  3.8333E-01
time,fu0,fu1,fu =   3.0240E+05 -4.5368E-02 -3.5633E-02 -3.9365E-02  6.166666666666667E-01  3.833333333333333E-01
 cg2d: Sum(rhs),rhsMax =  -2.39166325632922E-14  7.81630614635522E+00
time,SST,SSS,fu,fv,Q,E-P,i0,i1,a,b =   3.4560E+05  2.9456E-01  3.4457E+01 -3.9202E-02 -6.2020E-02  2.6528E+02  0.0000E+00    12     1  6.3333E-01  3.6667E-01
time,fu0,fu1,fu =   3.4560E+05 -4.5368E-02 -3.5633E-02 -3.9202E-02  6.333333333333333E-01  3.666666666666667E-01
 cg2d: Sum(rhs),rhsMax =   5.21822168808583E-14  8.14044113236795E+00
time,SST,SSS,fu,fv,Q,E-P,i0,i1,a,b =   3.8880E+05  3.2473E-01  3.4469E+01 -3.9040E-02 -6.1804E-02  2.6530E+02  0.0000E+00    12     1  6.5000E-01  3.5000E-01
time,fu0,fu1,fu =   3.8880E+05 -4.5368E-02 -3.5633E-02 -3.9040E-02  6.500000000000000E-01  3.500000000000000E-01
 cg2d: Sum(rhs),rhsMax =  -5.82266006243781E-13  8.23377584594843E+00
 --> objf_test(bi,bj)   =  0.000000000000000E+00
 --> objf_tracer(bi,bj) =  0.000000000000000E+00
 --> objf_atl(bi,bj)    = -0.626858124405753E-01
  local fc = -0.626858124405753E-01
 global fc = -0.626858124405753E-01
(PID.TID 0000.0001)  MDS_READ_FIELD: opening file: xx_theta.0000000000.001.001.data
 grad-res -------------------------------
 grad-res     0    4   79   27    1    1    1    1   -.626855632657E-01 -.626857432667E-01 -.626858124406E-01
 grad-res     0    4    4 1875 2315    1    1    1   -.100962388848E-04 0.345869513169E-05 0.134257263236E+01
(PID.TID 0000.0001)       precision_grdchk_result ADM    -6.26855632656561E-02    -1.00962388847706E-05
 ph-grd  ierr ---------------------------
 ph-grd  ierr =  0, icomp =  1875, ichknum =  4
(PID.TID 0000.0001) 
(PID.TID 0000.0001) // =======================================================
(PID.TID 0000.0001) // Gradient check results  >>> START <<<
(PID.TID 0000.0001) // =======================================================
(PID.TID 0000.0001) 
(PID.TID 0000.0001) 
(PID.TID 0000.0001)  EPS =  0.100E-01
(PID.TID 0000.0001) grdchk output:            procId               I        ITILEPOS        JTILEPOS           LAYER            X(I)      X(I)+/-EPS
(PID.TID 0000.0001) grdchk output:                                FC             FC1             FC2 FC1-FC2/(2*EPS)    ADJ GRAD(FC)   1-FDGRD/ADGRD
(PID.TID 0000.0001) grdchk output:                 0               1              76              27               1 0.000000000E+00 -.100000000E-01
(PID.TID 0000.0001) grdchk output:                   -.626855633E-01 -.626856217E-01 -.626855052E-01 -.582736373E-05 -.583099775E-05 0.623223859E-03
(PID.TID 0000.0001) 
(PID.TID 0000.0001) grdchk output:                 0               2              77              27               1 0.000000000E+00 -.100000000E-01
(PID.TID 0000.0001) grdchk output:                   -.626855633E-01 -.626856049E-01 -.626855217E-01 -.415916838E-05 -.416404959E-05 0.117222729E-02
(PID.TID 0000.0001) 
(PID.TID 0000.0001) grdchk output:                 0               3              78              27               1 0.000000000E+00 -.100000000E-01
(PID.TID 0000.0001) grdchk output:                   -.626855633E-01 -.626855337E-01 -.626855937E-01 0.300038172E-05 0.292757988E-05 -.248675839E-01
(PID.TID 0000.0001) 
(PID.TID 0000.0001) grdchk output:                 0               4              79              27               1 0.000000000E+00 -.100000000E-01
(PID.TID 0000.0001) grdchk output:                   -.626855633E-01 -.626857433E-01 -.626858124E-01 0.345869513E-05 -.100962389E-04 0.134257263E+01
(PID.TID 0000.0001) 
(PID.TID 0000.0001) 
(PID.TID 0000.0001) // =======================================================
(PID.TID 0000.0001) // Gradient check results  >>> END <<<
(PID.TID 0000.0001) // =======================================================
(PID.TID 0000.0001) 
(PID.TID 0000.0001) %CHECKPOINT         0 ckptA
(PID.TID 0000.0001)   Seconds in section "ALL                    [THE_MODEL_MAIN]":
(PID.TID 0000.0001)           User time:  122.565368
(PID.TID 0000.0001)         System time:  1.96770103
(PID.TID 0000.0001)     Wall clock time:  124.963891
(PID.TID 0000.0001)          No. starts: 1
(PID.TID 0000.0001)           No. stops: 1
(PID.TID 0000.0001)   Seconds in section "INITIALISE_FIXED       [THE_MODEL_MAIN]":
(PID.TID 0000.0001)           User time:  0.34194801
(PID.TID 0000.0001)         System time:  0.112983003
(PID.TID 0000.0001)     Wall clock time:  0.563237906
(PID.TID 0000.0001)          No. starts: 1
(PID.TID 0000.0001)           No. stops: 1
(PID.TID 0000.0001)   Seconds in section "ADTHE_MAIN_LOOP          [ADJOINT RUN]":
(PID.TID 0000.0001)           User time:  47.7777375
(PID.TID 0000.0001)         System time:  0.790880017
(PID.TID 0000.0001)     Wall clock time:  48.806572
(PID.TID 0000.0001)          No. starts: 1
(PID.TID 0000.0001)           No. stops: 1
(PID.TID 0000.0001)   Seconds in section "LOAD_FIELDS_DRIVER  [FORWARD_STEP]":
(PID.TID 0000.0001)           User time:  0.140979409
(PID.TID 0000.0001)         System time:  0.0189989358
(PID.TID 0000.0001)     Wall clock time:  0.166911602
(PID.TID 0000.0001)          No. starts: 100
(PID.TID 0000.0001)           No. stops: 100
(PID.TID 0000.0001)   Seconds in section "EXTERNAL_FLDS_LOAD [LOAD_FLDS_DRIVER]":
(PID.TID 0000.0001)           User time:  0.141971231
(PID.TID 0000.0001)         System time:  0.0189989358
(PID.TID 0000.0001)     Wall clock time:  0.174279451
(PID.TID 0000.0001)          No. starts: 110
(PID.TID 0000.0001)           No. stops: 110
(PID.TID 0000.0001)   Seconds in section "I/O (WRITE)        [ADJOINT LOOP]":
(PID.TID 0000.0001)           User time:  0.118982792
(PID.TID 0000.0001)         System time:  0.0429930091
(PID.TID 0000.0001)     Wall clock time:  0.163563728
(PID.TID 0000.0001)          No. starts: 150
(PID.TID 0000.0001)           No. stops: 150
(PID.TID 0000.0001)   Seconds in section "DO_ATMOSPHERIC_PHYS [FORWARD_STEP]":
(PID.TID 0000.0001)           User time:  0.00299739838
(PID.TID 0000.0001)         System time:  0.
(PID.TID 0000.0001)     Wall clock time:  0.00405406952
(PID.TID 0000.0001)          No. starts: 100
(PID.TID 0000.0001)           No. stops: 100
(PID.TID 0000.0001)   Seconds in section "DO_OCEANIC_PHYS     [FORWARD_STEP]":
(PID.TID 0000.0001)           User time:  21.8436801
(PID.TID 0000.0001)         System time:  0.0449918807
(PID.TID 0000.0001)     Wall clock time:  21.9163806
(PID.TID 0000.0001)          No. starts: 100
(PID.TID 0000.0001)           No. stops: 100
(PID.TID 0000.0001)   Seconds in section "THERMODYNAMICS      [FORWARD_STEP]":
(PID.TID 0000.0001)           User time:  20.6808356
(PID.TID 0000.0001)         System time:  0.0269938409
(PID.TID 0000.0001)     Wall clock time:  20.7263329
(PID.TID 0000.0001)          No. starts: 100
(PID.TID 0000.0001)           No. stops: 100
(PID.TID 0000.0001)   Seconds in section "DYNAMICS            [FORWARD_STEP]":
(PID.TID 0000.0001)           User time:  34.4597777
(PID.TID 0000.0001)         System time:  0.068991065
(PID.TID 0000.0001)     Wall clock time:  34.5460517
(PID.TID 0000.0001)          No. starts: 100
(PID.TID 0000.0001)           No. stops: 100
(PID.TID 0000.0001)   Seconds in section "SOLVE_FOR_PRESSURE  [FORWARD_STEP]":
(PID.TID 0000.0001)           User time:  4.10136998
(PID.TID 0000.0001)         System time:  0.00400003791
(PID.TID 0000.0001)     Wall clock time:  4.10908842
(PID.TID 0000.0001)          No. starts: 100
(PID.TID 0000.0001)           No. stops: 100
(PID.TID 0000.0001)   Seconds in section "MOM_CORRECTION_STEP [FORWARD_STEP]":
(PID.TID 0000.0001)           User time:  1.30180943
(PID.TID 0000.0001)         System time:  0.000999987125
(PID.TID 0000.0001)     Wall clock time:  1.30484867
(PID.TID 0000.0001)          No. starts: 100
(PID.TID 0000.0001)           No. stops: 100
(PID.TID 0000.0001)   Seconds in section "TRC_CORRECTION_STEP [FORWARD_STEP]":
(PID.TID 0000.0001)           User time:  0.339954615
(PID.TID 0000.0001)         System time:  0.
(PID.TID 0000.0001)     Wall clock time:  0.347970963
(PID.TID 0000.0001)          No. starts: 100
(PID.TID 0000.0001)           No. stops: 100
(PID.TID 0000.0001)   Seconds in section "BLOCKING_EXCHANGES  [FORWARD_STEP]":
(PID.TID 0000.0001)           User time:  0.656917214
(PID.TID 0000.0001)         System time:  0.00399887562
(PID.TID 0000.0001)     Wall clock time:  0.659275532
(PID.TID 0000.0001)          No. starts: 100
(PID.TID 0000.0001)           No. stops: 100
(PID.TID 0000.0001)   Seconds in section "MONITOR             [FORWARD_STEP]":
(PID.TID 0000.0001)           User time:  0.00399780273
(PID.TID 0000.0001)         System time:  0.00100004673
(PID.TID 0000.0001)     Wall clock time:  0.00415062904
(PID.TID 0000.0001)          No. starts: 100
(PID.TID 0000.0001)           No. stops: 100
(PID.TID 0000.0001)   Seconds in section "COST_TILE           [FORWARD_STEP]":
(PID.TID 0000.0001)           User time:  1.70474637
(PID.TID 0000.0001)         System time:  0.0039999783
(PID.TID 0000.0001)     Wall clock time:  1.71541786
(PID.TID 0000.0001)          No. starts: 100
(PID.TID 0000.0001)           No. stops: 100
(PID.TID 0000.0001)   Seconds in section "DO_THE_MODEL_IO     [FORWARD_STEP]":
(PID.TID 0000.0001)           User time:  0.744877815
(PID.TID 0000.0001)         System time:  0.424934089
(PID.TID 0000.0001)     Wall clock time:  1.17093301
(PID.TID 0000.0001)          No. starts: 100
(PID.TID 0000.0001)           No. stops: 100
(PID.TID 0000.0001)   Seconds in section "DO_WRITE_PICKUP     [FORWARD_STEP]":
(PID.TID 0000.0001)           User time:  0.00299835205
(PID.TID 0000.0001)         System time:  0.
(PID.TID 0000.0001)     Wall clock time:  0.00403356552
(PID.TID 0000.0001)          No. starts: 100
(PID.TID 0000.0001)           No. stops: 100
(PID.TID 0000.0001)   Seconds in section "CTRL_PACK           [THE_MODEL_MAIN]":
(PID.TID 0000.0001)           User time:  0.16097641
(PID.TID 0000.0001)         System time:  0.018996954
(PID.TID 0000.0001)     Wall clock time:  0.189033985
(PID.TID 0000.0001)          No. starts: 1
(PID.TID 0000.0001)           No. stops: 1
(PID.TID 0000.0001)   Seconds in section "CTRL_PACK     [THE_MODEL_MAIN]":
(PID.TID 0000.0001)           User time:  0.148975372
(PID.TID 0000.0001)         System time:  0.0179970264
(PID.TID 0000.0001)     Wall clock time:  0.175482988
(PID.TID 0000.0001)          No. starts: 1
(PID.TID 0000.0001)           No. stops: 1
(PID.TID 0000.0001)   Seconds in section "GRDCHK_MAIN         [THE_MODEL_MAIN]":
(PID.TID 0000.0001)           User time:  73.9757576
(PID.TID 0000.0001)         System time:  0.931857944
(PID.TID 0000.0001)     Wall clock time:  74.9738131
(PID.TID 0000.0001)          No. starts: 1
(PID.TID 0000.0001)           No. stops: 1
(PID.TID 0000.0001)   Seconds in section "INITIALISE_VARIA    [THE_MAIN_LOOP]":
(PID.TID 0000.0001)           User time:  2.48764038
(PID.TID 0000.0001)         System time:  0.318952024
(PID.TID 0000.0001)     Wall clock time:  2.81401181
(PID.TID 0000.0001)          No. starts: 8
(PID.TID 0000.0001)           No. stops: 8
(PID.TID 0000.0001)   Seconds in section "MAIN LOOP           [THE_MAIN_LOOP]":
(PID.TID 0000.0001)           User time:  70.9731979
(PID.TID 0000.0001)         System time:  0.467929125
(PID.TID 0000.0001)     Wall clock time:  71.4943554
(PID.TID 0000.0001)          No. starts: 8
(PID.TID 0000.0001)           No. stops: 8
(PID.TID 0000.0001)   Seconds in section "FORWARD_STEP        [THE_MAIN_LOOP]":
(PID.TID 0000.0001)           User time:  68.9035225
(PID.TID 0000.0001)         System time:  0.465930104
(PID.TID 0000.0001)     Wall clock time:  69.4224896
(PID.TID 0000.0001)          No. starts: 80
(PID.TID 0000.0001)           No. stops: 80
(PID.TID 0000.0001)   Seconds in section "COST_FINAL         [ADJOINT SPIN-DOWN]":
(PID.TID 0000.0001)           User time:  0.00400543213
(PID.TID 0000.0001)         System time:  0.
(PID.TID 0000.0001)     Wall clock time:  0.00121307373
(PID.TID 0000.0001)          No. starts: 8
(PID.TID 0000.0001)           No. stops: 8
(PID.TID 0000.0001)   Seconds in section "DO_WRITE_PICKUP        [THE_MODEL_MAIN]":
(PID.TID 0000.0001)           User time:  0.158973694
(PID.TID 0000.0001)         System time:  0.0949860811
(PID.TID 0000.0001)     Wall clock time:  0.255412102
(PID.TID 0000.0001)          No. starts: 1
(PID.TID 0000.0001)           No. stops: 1
(PID.TID 0000.0001) // ======================================================
(PID.TID 0000.0001) // Tile <-> Tile communication statistics
(PID.TID 0000.0001) // ======================================================
(PID.TID 0000.0001) // o Tile number: 000001
(PID.TID 0000.0001) //         No. X exchanges =              0
(PID.TID 0000.0001) //            Max. X spins =              0
(PID.TID 0000.0001) //            Min. X spins =     1000000000
(PID.TID 0000.0001) //          Total. X spins =              0
(PID.TID 0000.0001) //            Avg. X spins =       0.00E+00
(PID.TID 0000.0001) //         No. Y exchanges =              0
(PID.TID 0000.0001) //            Max. Y spins =              0
(PID.TID 0000.0001) //            Min. Y spins =     1000000000
(PID.TID 0000.0001) //          Total. Y spins =              0
(PID.TID 0000.0001) //            Avg. Y spins =       0.00E+00
(PID.TID 0000.0001) // o Thread number: 000001
(PID.TID 0000.0001) //            No. barriers =          39640
(PID.TID 0000.0001) //      Max. barrier spins =              1
(PID.TID 0000.0001) //      Min. barrier spins =              1
(PID.TID 0000.0001) //     Total barrier spins =          39640
(PID.TID 0000.0001) //      Avg. barrier spins =       1.00E+00
