(PID.TID 0000.0001) 
(PID.TID 0000.0001) // ======================================================
(PID.TID 0000.0001) //                      MITgcm UV
(PID.TID 0000.0001) //                      =========
(PID.TID 0000.0001) // ======================================================
(PID.TID 0000.0001) // execution environment starting up...
(PID.TID 0000.0001) // Run starting Wed Apr  1 14:19:48 1998
(PID.TID 0000.0001) // on melville.lcs.mit.edu
(PID.TID 0000.0001) // account cnh
(PID.TID 0000.0001) // MITgcm UV Release: $Name:  $
(PID.TID 0000.0001) 
(PID.TID 0000.0001) // =======================================================
(PID.TID 0000.0001) // Execution Environment parameter file "eedata"
(PID.TID 0000.0001) // =======================================================
(PID.TID 0000.0001) ># Example "eedata" file
(PID.TID 0000.0001) ># Lines beginning "#" are comments
(PID.TID 0000.0001) ># nTx - No. threads per process in X
(PID.TID 0000.0001) ># nTy - No. threads per process in Y
(PID.TID 0000.0001) > &EEPARMS
(PID.TID 0000.0001) > nTx=1,nTy=1
(PID.TID 0000.0001) > &
(PID.TID 0000.0001) ># Note: Some systems use & as the
(PID.TID 0000.0001) ># namelist terminator. Other systems
(PID.TID 0000.0001) ># use a / character (as shown here).
(PID.TID 0000.0001) ># BUT some compilers do not understand "/"
(PID.TID 0000.0001) 
(PID.TID 0000.0001) // =======================================================
(PID.TID 0000.0001) // Computational Grid Specification ( see files "SIZE.h" )
(PID.TID 0000.0001) //                                  ( and "eedata"       )
(PID.TID 0000.0001) // =======================================================
(PID.TID 0000.0001)      nPx =    1 ; /* No. processes in X */
(PID.TID 0000.0001)      nPy =    1 ; /* No. processes in Y */
(PID.TID 0000.0001)      nSx =    1 ; /* No. tiles in X per process */
(PID.TID 0000.0001)      nSy =    1 ; /* No. tiles in Y per process */
(PID.TID 0000.0001)      sNx =   90 ; /* Tile size in X */
(PID.TID 0000.0001)      sNy =   40 ; /* Tile size in Y */
(PID.TID 0000.0001)      OLx =    2 ; /* Tile overlap distance in X */
(PID.TID 0000.0001)      OLy =    2 ; /* Tile overlap distance in Y */
(PID.TID 0000.0001)      nTx =    1 ; /* No. threads in X per process */
(PID.TID 0000.0001)      nTy =    1 ; /* No. threads in Y per process */
(PID.TID 0000.0001)       Nr =   15 ; /* No. levels in the vertical   */
(PID.TID 0000.0001)       nX =   90 ; /* Total domain size in X ( = nPx*nSx*sNx ) */
(PID.TID 0000.0001)       nY =   40 ; /* Total domain size in Y ( = nPy*nSy*sNy ) */
(PID.TID 0000.0001)   nTiles =    1 ; /* Total no. tiles per process ( = nSx*nSy ) */
(PID.TID 0000.0001)   nProcs =    1 ; /* Total no. processes ( = nPx*nPy ) */
(PID.TID 0000.0001) nThreads =    1 ; /* Total no. threads per process ( = nTx*nTy ) */
(PID.TID 0000.0001) usingMPI =    F ; /* Flag used to control whether MPI is in use */
(PID.TID 0000.0001)                   /*  note: To execute a program with MPI calls */
(PID.TID 0000.0001)                   /*  it must be launched appropriately e.g     */
(PID.TID 0000.0001)                   /*  "mpirun -np 64 ......"                    */
(PID.TID 0000.0001) 
(PID.TID 0000.0001) // ======================================================
(PID.TID 0000.0001) // Mapping of tiles to threads
(PID.TID 0000.0001) // ======================================================
(PID.TID 0000.0001) // -o- Thread   1, tiles (   1:   1,   1:   1)
(PID.TID 0000.0001) 
(PID.TID 0000.0001) // ======================================================
(PID.TID 0000.0001) // Tile <-> Tile connectvity table
(PID.TID 0000.0001) // ======================================================
(PID.TID 0000.0001) // Tile number: 000001 (process no. = 000001)
(PID.TID 0000.0001) //        WEST: Tile = 000001, Process = 000001, Comm = put
(PID.TID 0000.0001) //                bi = 000001, bj = 000001
(PID.TID 0000.0001) //        EAST: Tile = 000001, Process = 000001, Comm = put
(PID.TID 0000.0001) //                bi = 000001, bj = 000001
(PID.TID 0000.0001) //       SOUTH: Tile = 000001, Process = 000001, Comm = put
(PID.TID 0000.0001) //                bi = 000001, bj = 000001
(PID.TID 0000.0001) //       NORTH: Tile = 000001, Process = 000001, Comm = put
(PID.TID 0000.0001) //                bi = 000001, bj = 000001
(PID.TID 0000.0001) 
(PID.TID 0000.0001) // =======================================================
(PID.TID 0000.0001) // Model parameter file "data"
(PID.TID 0000.0001) // =======================================================
(PID.TID 0000.0001) ># ====================
(PID.TID 0000.0001) ># | Model parameters |
(PID.TID 0000.0001) ># ====================
(PID.TID 0000.0001) >#
(PID.TID 0000.0001) ># Continuous equation parameters
(PID.TID 0000.0001) > &PARM01
(PID.TID 0000.0001) > tRef=15*20.,
(PID.TID 0000.0001) > sRef=15*35.,
(PID.TID 0000.0001) > viscAh =3.E5,
(PID.TID 0000.0001) > no_slip_sides=.TRUE.,
(PID.TID 0000.0001) > viscAr =1.721611620915750e5,
(PID.TID 0000.0001) >#viscAz =1.67E-3,
(PID.TID 0000.0001) > no_slip_bottom=.FALSE.,
(PID.TID 0000.0001) > diffKhT=1.E3,
(PID.TID 0000.0001) > diffKrT=5.154525811125000e3,
(PID.TID 0000.0001) >#diffKzT=0.5E-4,
(PID.TID 0000.0001) > diffKhS=1.E3,
(PID.TID 0000.0001) > diffKrS=5.154525811125000e3,
(PID.TID 0000.0001) >#diffKzS=0.5E-4,
(PID.TID 0000.0001) > implicitDiffusion=.TRUE.,
(PID.TID 0000.0001) > ivdc_kappa=1.030905162225000e9,
(PID.TID 0000.0001) >#ivdc_kappa=10.0,
(PID.TID 0000.0001) > gravity=9.81,
(PID.TID 0000.0001) > rhonil=1035.,
(PID.TID 0000.0001) > buoyancyRelation='OCEANICP',
(PID.TID 0000.0001) > integr_GeoPot=1,
(PID.TID 0000.0001) > eosType='JMD95P',
(PID.TID 0000.0001) > useNHMTerms=.TRUE.,
(PID.TID 0000.0001) > rigidLid=.FALSE.,
(PID.TID 0000.0001) > implicitFreeSurface=.TRUE.,
(PID.TID 0000.0001) > exactConserv=.TRUE.,
(PID.TID 0000.0001) > nonlinFreeSurf=4,
(PID.TID 0000.0001) > hFacInf=0.2,
(PID.TID 0000.0001) > hFacSup=2.0,
(PID.TID 0000.0001) >#useRealFreshWaterFlux=.TRUE.,
(PID.TID 0000.0001) > readBinaryPrec=64,
(PID.TID 0000.0001) > writeBinaryPrec=64,
(PID.TID 0000.0001) > cosPower=0.5,
(PID.TID 0000.0001) > &
(PID.TID 0000.0001) >
(PID.TID 0000.0001) ># Elliptic solver parameters
(PID.TID 0000.0001) > &PARM02
(PID.TID 0000.0001) > cg2dMaxIters=200,
(PID.TID 0000.0001) > cg2dTargetResidual=1.E-9,
(PID.TID 0000.0001) > &
(PID.TID 0000.0001) >
(PID.TID 0000.0001) ># Time stepping parameters
(PID.TID 0000.0001) > &PARM03
(PID.TID 0000.0001) > startTime =           0.,
(PID.TID 0000.0001) > endTime   =     3456000.,
(PID.TID 0000.0001) ># after 100 years of intergration, one gets a reasonable flow field
(PID.TID 0000.0001) >#endTime   = 3110400000.,
(PID.TID 0000.0001) > deltaTmom      =   1200.0,
(PID.TID 0000.0001) > deltaTtracer   = 172800.0,
(PID.TID 0000.0001) > deltaTfreesurf = 172800.0,
(PID.TID 0000.0001) > deltaTClock    = 172800.0,
(PID.TID 0000.0001) > pChkptFreq  = 3110400000.,
(PID.TID 0000.0001) > dumpFreq    = 3110400000.,
(PID.TID 0000.0001) > taveFreq    = 3110400000.,
(PID.TID 0000.0001) > monitorFreq =   1.,
(PID.TID 0000.0001) > periodicExternalForcing=.TRUE.,
(PID.TID 0000.0001) > externForcingPeriod=2592000.,
(PID.TID 0000.0001) > externForcingCycle=31104000.,
(PID.TID 0000.0001) > tauThetaClimRelax=5184000.0,
(PID.TID 0000.0001) > abEps=0.1,
(PID.TID 0000.0001) > &
(PID.TID 0000.0001) >
(PID.TID 0000.0001) ># Gridding parameters
(PID.TID 0000.0001) > &PARM04
(PID.TID 0000.0001) > usingCartesianGrid=.FALSE.,
(PID.TID 0000.0001) > usingSphericalPolarGrid=.TRUE.,
(PID.TID 0000.0001) > dXspacing=4.,
(PID.TID 0000.0001) > dYspacing=4.,
(PID.TID 0000.0001) > Ro_SeaLevel=53023122.566084,
(PID.TID 0000.0001) > groundAtK1=.TRUE.,
(PID.TID 0000.0001) > delR=7103300.720021, 6570548.440790, 6041670.010249,
(PID.TID 0000.0001) >      5516436.666057, 4994602.034410, 4475903.435290,
(PID.TID 0000.0001) >      3960063.245801, 3446790.312651, 2935781.405664,
(PID.TID 0000.0001) >      2426722.705046, 1919291.315988, 1413156.804970,
(PID.TID 0000.0001) >      1008846.750166,  705919.025481,  504089.693499,
(PID.TID 0000.0001) > phiMin=-80.,
(PID.TID 0000.0001) > &
(PID.TID 0000.0001) >
(PID.TID 0000.0001) ># Input datasets
(PID.TID 0000.0001) > &PARM05
(PID.TID 0000.0001) > topoFile       ='topog.bin',
(PID.TID 0000.0001) > pLoadFile      ='deltageopotjmd95.bin',
(PID.TID 0000.0001) > hydrogThetaFile='lev_t.bin',
(PID.TID 0000.0001) > hydrogSaltFile ='lev_s.bin',
(PID.TID 0000.0001) > zonalWindFile  ='trenberth_taux.bin',
(PID.TID 0000.0001) > meridWindFile  ='trenberth_tauy.bin',
(PID.TID 0000.0001) > thetaClimFile  ='lev_sst.bin',
(PID.TID 0000.0001) >#saltClimFile   ='lev_sss.bin',
(PID.TID 0000.0001) > surfQFile      ='shi_qnet.bin',
(PID.TID 0000.0001) > EmPmRFile      ='shi_empmr.bin',
(PID.TID 0000.0001) > &
(PID.TID 0000.0001) 
(PID.TID 0000.0001) S/R INI_PARMS ; read PARM01 : OK
(PID.TID 0000.0001) S/R INI_PARMS ; read PARM02 : OK
(PID.TID 0000.0001) S/R INI_PARMS ; read PARM03 : OK
(PID.TID 0000.0001) S/R INI_PARMS ; read PARM04 : OK
(PID.TID 0000.0001) S/R INI_PARMS ; read PARM05 : OK
(PID.TID 0000.0001) %MON XC_max                       =   3.5800000000000E+02
(PID.TID 0000.0001) %MON XC_min                       =   2.0000000000000E+00
(PID.TID 0000.0001) %MON XC_mean                      =   1.8000000000000E+02
(PID.TID 0000.0001) %MON XC_sd                        =   1.0391663325314E+02
(PID.TID 0000.0001) %MON XG_max                       =   3.5600000000000E+02
(PID.TID 0000.0001) %MON XG_min                       =   4.0000000000000E+00
(PID.TID 0000.0001) %MON XG_mean                      =   1.8000000000000E+02
(PID.TID 0000.0001) %MON XG_sd                        =   1.0276186062932E+02
(PID.TID 0000.0001) %MON DXC_max                      =   4.4443898815675E+05
(PID.TID 0000.0001) %MON DXC_min                      =   9.2460385861875E+04
(PID.TID 0000.0001) %MON DXC_mean                     =   3.1372497618153E+05
(PID.TID 0000.0001) %MON DXC_sd                       =   1.1216447457560E+05
(PID.TID 0000.0001) %MON DXF_max                      =   4.4443898815675E+05
(PID.TID 0000.0001) %MON DXF_min                      =   9.2460385861875E+04
(PID.TID 0000.0001) %MON DXF_mean                     =   3.1372497618153E+05
(PID.TID 0000.0001) %MON DXF_sd                       =   1.1216447457560E+05
(PID.TID 0000.0001) %MON DXG_max                      =   4.4470989340816E+05
(PID.TID 0000.0001) %MON DXG_min                      =   7.7223062580781E+04
(PID.TID 0000.0001) %MON DXG_mean                     =   3.1353386340260E+05
(PID.TID 0000.0001) %MON DXG_sd                       =   1.1256651772502E+05
(PID.TID 0000.0001) %MON DXV_max                      =   4.4470989340816E+05
(PID.TID 0000.0001) %MON DXV_min                      =   7.7223062580781E+04
(PID.TID 0000.0001) %MON DXV_mean                     =   3.1353386340260E+05
(PID.TID 0000.0001) %MON DXV_sd                       =   1.1256651772502E+05
(PID.TID 0000.0001) %MON YC_max                       =   7.8000000000000E+01
(PID.TID 0000.0001) %MON YC_min                       =  -7.8000000000000E+01
(PID.TID 0000.0001) %MON YC_mean                      =   0.0000000000000E+00
(PID.TID 0000.0001) %MON YC_sd                        =   4.6173585522461E+01
(PID.TID 0000.0001) %MON YG_max                       =   7.6000000000000E+01
(PID.TID 0000.0001) %MON YG_min                       =  -8.0000000000000E+01
(PID.TID 0000.0001) %MON YG_mean                      =  -2.0512820512821E+00
(PID.TID 0000.0001) %MON YG_sd                        =   4.6760682979564E+01
(PID.TID 0000.0001) %MON DYC_max                      =   4.4470989340816E+05
(PID.TID 0000.0001) %MON DYC_min                      =   4.4470989340816E+05
(PID.TID 0000.0001) %MON DYC_mean                     =   4.4470989340814E+05
(PID.TID 0000.0001) %MON DYC_sd                       =   1.9848812371492E-08
(PID.TID 0000.0001) %MON DYF_max                      =   4.4470989340816E+05
(PID.TID 0000.0001) %MON DYF_min                      =   4.4470989340816E+05
(PID.TID 0000.0001) %MON DYF_mean                     =   4.4470989340814E+05
(PID.TID 0000.0001) %MON DYF_sd                       =   1.9848812371492E-08
(PID.TID 0000.0001) %MON DYG_max                      =   4.4470989340816E+05
(PID.TID 0000.0001) %MON DYG_min                      =   4.4470989340816E+05
(PID.TID 0000.0001) %MON DYG_mean                     =   4.4470989340814E+05
(PID.TID 0000.0001) %MON DYG_sd                       =   1.9848812371492E-08
(PID.TID 0000.0001) %MON DYU_max                      =   4.4470989340816E+05
(PID.TID 0000.0001) %MON DYU_min                      =   4.4470989340816E+05
(PID.TID 0000.0001) %MON DYU_mean                     =   4.4470989340814E+05
(PID.TID 0000.0001) %MON DYU_sd                       =   1.9848812371492E-08
(PID.TID 0000.0001) %MON RA_max                       =   1.9760627980089E+11
(PID.TID 0000.0001) %MON RA_min                       =   4.1109698667291E+10
(PID.TID 0000.0001) %MON RA_mean                      =   1.3948826965197E+11
(PID.TID 0000.0001) %MON RA_sd                        =   4.9870522472902E+10
(PID.TID 0000.0001) %MON RAW_max                      =   1.9760627980089E+11
(PID.TID 0000.0001) %MON RAW_min                      =   4.1109698667291E+10
(PID.TID 0000.0001) %MON RAW_mean                     =   1.3948826965197E+11
(PID.TID 0000.0001) %MON RAW_sd                       =   4.9870522472902E+10
(PID.TID 0000.0001) %MON RAS_max                      =   1.9772672958215E+11
(PID.TID 0000.0001) %MON RAS_min                      =   3.4334886267982E+10
(PID.TID 0000.0001) %MON RAS_mean                     =   1.3940329716694E+11
(PID.TID 0000.0001) %MON RAS_sd                       =   5.0049278732354E+10
(PID.TID 0000.0001) %MON RAZ_max                      =   1.9772672958215E+11
(PID.TID 0000.0001) %MON RAZ_min                      =   3.4334886267982E+10
(PID.TID 0000.0001) %MON RAZ_mean                     =   1.3940329716694E+11
(PID.TID 0000.0001) %MON RAZ_sd                       =   5.0049278732354E+10
(PID.TID 0000.0001)  MDSREADFIELD: opening global file: topog.bin
(PID.TID 0000.0001) // =======================================================
(PID.TID 0000.0001) // Field Model R_low (ini_masks_etc) at iteration          1
(PID.TID 0000.0001) // CMIN =          1.008622348308563E-06
(PID.TID 0000.0001) // CMAX =          1.008622348308563E-06
(PID.TID 0000.0001) // CINT =          0.000000000000000E+00
(PID.TID 0000.0001) // SYMBOLS (CMIN->CMAX): -abcdefghijklmnopqrstuvwxyz+
(PID.TID 0000.0001) //                  0.0: .
(PID.TID 0000.0001) // RANGE I (Lo:Hi:Step):(  -1:  92:   1)
(PID.TID 0000.0001) // RANGE J (Lo:Hi:Step):(  42:  -1:  -1)
(PID.TID 0000.0001) // RANGE K (Lo:Hi:Step):(   1:   1:   1)
(PID.TID 0000.0001) // =======================================================
(PID.TID 0000.0001) K =   1
(PID.TID 0000.0001) //                I=8       I=18      I=28      I=38      I=48      I=58      I=68      I=78      I=88
(PID.TID 0000.0001) // |--J--|*01234567|901234567|901234567|901234567|901234567|901234567|901234567|901234567|901234567|9012
(PID.TID 0000.0001) //     42 ----------------------------------------------------------------------------------------------
(PID.TID 0000.0001) //     41 ----------------------------------------------------------------------------------------------
(PID.TID 0000.0001) //     40 ----------------------------------------------------------------------------------------------
(PID.TID 0000.0001) //     39 ----------------------------------------------------------------------------------------------
(PID.TID 0000.0001) //     38 ----------------------------------------------------------------------------------------------
(PID.TID 0000.0001) //     37 ----------------------------------------------------------------------------------------------
(PID.TID 0000.0001) //     36 ----------------------------------------------------------------------------------------------
(PID.TID 0000.0001) //     35 ----------------------------------------------------------------------------------------------
(PID.TID 0000.0001) //     34 ----------------------------------------------------------------------------------------------
(PID.TID 0000.0001) //     33 ----------------------------------------------------------------------------------------------
(PID.TID 0000.0001) //     32 ----------------------------------------------------------------------------------------------
(PID.TID 0000.0001) //     31 ----------------------------------------------------------------------------------------------
(PID.TID 0000.0001) //     30 ----------------------------------------------------------------------------------------------
(PID.TID 0000.0001) //     29 ----------------------------------------------------------------------------------------------
(PID.TID 0000.0001) //     28 ----------------------------------------------------------------------------------------------
(PID.TID 0000.0001) //     27 ----------------------------------------------------------------------------------------------
(PID.TID 0000.0001) //     26 ----------------------------------------------------------------------------------------------
(PID.TID 0000.0001) //     25 ----------------------------------------------------------------------------------------------
(PID.TID 0000.0001) //     24 ----------------------------------------------------------------------------------------------
(PID.TID 0000.0001) //     23 ----------------------------------------------------------------------------------------------
(PID.TID 0000.0001) //     22 ----------------------------------------------------------------------------------------------
(PID.TID 0000.0001) //     21 ----------------------------------------------------------------------------------------------
(PID.TID 0000.0001) //     20 ----------------------------------------------------------------------------------------------
(PID.TID 0000.0001) //     19 ----------------------------------------------------------------------------------------------
(PID.TID 0000.0001) //     18 ----------------------------------------------------------------------------------------------
(PID.TID 0000.0001) //     17 ----------------------------------------------------------------------------------------------
(PID.TID 0000.0001) //     16 ----------------------------------------------------------------------------------------------
(PID.TID 0000.0001) //     15 ----------------------------------------------------------------------------------------------
(PID.TID 0000.0001) //     14 ----------------------------------------------------------------------------------------------
(PID.TID 0000.0001) //     13 ----------------------------------------------------------------------------------------------
(PID.TID 0000.0001) //     12 ----------------------------------------------------------------------------------------------
(PID.TID 0000.0001) //     11 ----------------------------------------------------------------------------------------------
(PID.TID 0000.0001) //     10 ----------------------------------------------------------------------------------------------
(PID.TID 0000.0001) //      9 ----------------------------------------------------------------------------------------------
(PID.TID 0000.0001) //      8 ----------------------------------------------------------------------------------------------
(PID.TID 0000.0001) //      7 ----------------------------------------------------------------------------------------------
(PID.TID 0000.0001) //      6 ----------------------------------------------------------------------------------------------
(PID.TID 0000.0001) //      5 ----------------------------------------------------------------------------------------------
(PID.TID 0000.0001) //      4 ----------------------------------------------------------------------------------------------
(PID.TID 0000.0001) //      3 ----------------------------------------------------------------------------------------------
(PID.TID 0000.0001) //      2 ----------------------------------------------------------------------------------------------
(PID.TID 0000.0001) //      1 ----------------------------------------------------------------------------------------------
(PID.TID 0000.0001) //      0 ----------------------------------------------------------------------------------------------
(PID.TID 0000.0001) //     -1 ----------------------------------------------------------------------------------------------
(PID.TID 0000.0001) // =======================================================
(PID.TID 0000.0001) // END OF FIELD                                          =
(PID.TID 0000.0001) // =======================================================
(PID.TID 0000.0001) 
(PID.TID 0000.0001) // =======================================================
(PID.TID 0000.0001) // Field Model Ro_surf (ini_masks_etc) at iteration          1
(PID.TID 0000.0001) // CMIN =          1.008622348308563E-06
(PID.TID 0000.0001) // CMAX =          5.302312256608400E+07
(PID.TID 0000.0001) // CINT =          1.963819354299370E+06
(PID.TID 0000.0001) // SYMBOLS (CMIN->CMAX): -abcdefghijklmnopqrstuvwxyz+
(PID.TID 0000.0001) //                  0.0: .
(PID.TID 0000.0001) // RANGE I (Lo:Hi:Step):(  -1:  92:   1)
(PID.TID 0000.0001) // RANGE J (Lo:Hi:Step):(  42:  -1:  -1)
(PID.TID 0000.0001) // RANGE K (Lo:Hi:Step):(   1:   1:   1)
(PID.TID 0000.0001) // =======================================================
(PID.TID 0000.0001) K =   1
(PID.TID 0000.0001) //                I=8       I=18      I=28      I=38      I=48      I=58      I=68      I=78      I=88
(PID.TID 0000.0001) // |--J--|*01234567|901234567|901234567|901234567|901234567|901234567|901234567|901234567|901234567|9012
(PID.TID 0000.0001) //     42 --------------------------------------------bbcdnttwwwttttqnnlfddc--abcc-----ccbcltttttba-----
(PID.TID 0000.0001) //     41 ----------------------------------------------------------------------------------------------
(PID.TID 0000.0001) //     40 innllaa-aaaaaaaaaaaaa------------------------------------------------------------------aaainnl
(PID.TID 0000.0001) //     39 gnnllibbaaaaaaaa---aa-----------------------------------------------------bdda--------abffgnnl
(PID.TID 0000.0001) //     38 nllllibbaaaaaaa-----------------------------------------------------------bddca------bccfgnlll
(PID.TID 0000.0001) //     37 nnnga------------------------------------------------------------------aa---bca---bggc--agnnng
(PID.TID 0000.0001) //     36 fgga-----------------------------------------nnaa--------------------aaaaaaabnnn-bllfggffcfgga
(PID.TID 0000.0001) //     35 aaaa---------------------------------aaaa--iinnqqa---atttn-----------aaa----annqqqnglllgddaaaa
(PID.TID 0000.0001) //     34 -------------------------------------affc-tticcfab-wwwttttn------------------anqttqqqtttna----
(PID.TID 0000.0001) //     33 a-------------------------------------ffa+++t+++++++++wwwtqna-----------------aifwwtnttttda---
(PID.TID 0000.0001) //     32 a-------------------------------------ag++++t++++++++++wwttnn----------------aaatwttqltttna---
(PID.TID 0000.0001) //     31 --------------------------------------++++++w++++++++++wwwtqn--------------iw++twwwtiltwwn----
(PID.TID 0000.0001) //     30 -------------------------------------t++++w++w+++++++++++++ww------------at++++twwwlgqtwwq----
(PID.TID 0000.0001) //     29 -----------------------------------gf++++t+++tqt+++++++++++wwt-----------w++w+++wtnqq++wtq----
(PID.TID 0000.0001) //     28 ---------------------------------actn+++++++++++++++++++wwwwwtq---------iw++++++wntww++wqa----
(PID.TID 0000.0001) //     27 ----------------cc--------------aftttlt++++++++w+nnw+++wwwwwwttt---aaac-iw++++++qt+++++t------
(PID.TID 0000.0001) //     26 ----------------cnn-----------afw+++wl+++++++++++qwtn++++++wwtttqg-aa-ii-c++++++tw++++wq------
(PID.TID 0000.0001) //     25 ----------------qttq---lla---atfw+++wl+++ww++qqtnt+++++++++wwtttqnn---iifnac+++wqw++wwqq------
(PID.TID 0000.0001) //     24 --------------cntwwtg-qqqa---ftt-++twn+++++++++++++++++++wwwwwttqnqqqf-afnnddwwwtw++++wt------
(PID.TID 0000.0001) //     23 --------------dttwwtl-ttqd---fff--tqtq++++ttw+++++w++++++wwwwwttqqqqqql----bbqwwwt++++ww------
(PID.TID 0000.0001) //     22 gii-----------wwwqttgnttqq---bb-dlqwwlltwwwwt++++++wt+w++wwwwwwtttqqqqii------dwwwttwwtwwigii-
(PID.TID 0000.0001) //     21 ++wqi--------nwwwwqtiwwwqqb-----dltwwqtttnwwt++++++wqwwwwwwwwwttttqnnill--------twwtqttwww++wq
(PID.TID 0000.0001) //     20 ++wwi-------nwwwwwtqwwwwqww------b-fqqqgiltttt+++++++wwwwwwwwwwtttqttqqn---------ntt+++ttw++ww
(PID.TID 0000.0001) //     19 ww++t-------qwwlittl+++qwwwwd---aba-----iannww++++t++++wwwwwwwwttqtttttt-----------w+++wqtww++
(PID.TID 0000.0001) //     18 w+++w-------qtnttfqq+++qwww++w+qfaa---iiblntwwwwtwtq+++wwtwwwwwtqtttttwwa----------w+++wqtw+++
(PID.TID 0000.0001) //     17 w+++w-------q-twwdqt+++l+++++++qf-----iilnninnnltwww++wwwttttttnqttqtwwwq---------tw+++wqtw+++
(PID.TID 0000.0001) //     16 w+++w------gn-wwtnntw++i++++++nf-------flnnfnnndf+++wwqflnttttqntttttwwwqt--------it+++wqtw+++
(PID.TID 0000.0001) //     15 w++wlb----aqq-wwwttnwwwnw+++++f---------lggdllnf++++wwwwwtqtttqqtttttwwqttt------atw+++wqtw++w
(PID.TID 0000.0001) //     14 w++nwn----dwwi+++tqqqtwnw++w+tb---------ttgglttg++++++wwtwttqqqnqttqqqqtttt-----aqtw+++wntw++n
(PID.TID 0000.0001) //     13 wwn++t----nwwl+++qwwtqttliiw++n---------wwggittg++++++++wwwtttqqnqqttqttttl----aqttlwwwtntwwn+
(PID.TID 0000.0001) //     12 tt+++wdaqttwwnwntwwwtntqttww++wt+++a----wwigiilw+++++++++wwqtttqqqqqtttttt-----qwwwwttttnttt++
(PID.TID 0000.0001) //     11 tw+++w++qtwwwnnt++wwtlttttwww++++++++--wwwwng-nw+w+++++++++wwwtqntttqqtttt----n+++++wwtqnqtw++
(PID.TID 0000.0001) //     10 tw++ww+w++wtiqqt++wwtqnnnqttwwww+++++w-wwwwtd-nbiw+++++++++wwwtqnttwwttqtq--ad++++++wwttnqtw++
(PID.TID 0000.0001) //      9 ttwwwww+++llglntwtwtqqqttnnnttwwwwwwwwnwwwwt-fbt+++++++++++wwwtnqttwwwttqf-aad++++++wwwtqnttww
(PID.TID 0000.0001) //      8 tttqqqw++twwttwwwwfblqttttttnqqqttqqqtwtwwticfw++++++wwwwwwwttqnttwwwwwwta-aacttn++wtwwwtntttq
(PID.TID 0000.0001) //      7 ninnwwqqt++wnw++wwtgcqtwwwttwwwwwwwttnttwwntw++++++wwwwtttqtqnnttwww+++wwt-aaaintgfqtqwwwtninn
(PID.TID 0000.0001) //      6 w++++++++++++++++wwwnggwwwwwwwwwwwwwwtqqqqttw++++wwwtqnnqnwtww+++w+w+++wwwtqqqqtilnniwtqtww+++
(PID.TID 0000.0001) //      5 +++++++++++++++++wwwttttwwwwwwwwwwwwwtqqqlnlwwwwtttnnnqtwwww++++++++w+wwwwtqqqgitwwwwww+++++++
(PID.TID 0000.0001) //      4 ++tw++++++wwwqttttqqqttqqlbdnnllqqlnqqqqqnnnlnqlnnntttwwwwww+++++++wwwwwttnb--cqtwwwwww+++++tw
(PID.TID 0000.0001) //      3 ttttilqqqdcc----------------------------cclgnqqqqttwwwwwwwwwtttttwwwwttqqbb--ciqtwwwwwwwwttttt
(PID.TID 0000.0001) //      2 --------------------------------------------bbcdnttwwwttttqnnlfddc--abcc-----ccbcltttttba-----
(PID.TID 0000.0001) //      1 ----------------------------------------------------------------------------------------------
(PID.TID 0000.0001) //      0 innllaa-aaaaaaaaaaaaa------------------------------------------------------------------aaainnl
(PID.TID 0000.0001) //     -1 gnnllibbaaaaaaaa---aa-----------------------------------------------------bdda--------abffgnnl
(PID.TID 0000.0001) // =======================================================
(PID.TID 0000.0001) // END OF FIELD                                          =
(PID.TID 0000.0001) // =======================================================
(PID.TID 0000.0001) 
(PID.TID 0000.0001) // =======================================================
(PID.TID 0000.0001) // Field hFacC at iteration          1
(PID.TID 0000.0001) // CMIN =          1.000000000000000E+00
(PID.TID 0000.0001) // CMAX =          1.000000000000000E+00
(PID.TID 0000.0001) // CINT =          0.000000000000000E+00
(PID.TID 0000.0001) // SYMBOLS (CMIN->CMAX): -abcdefghijklmnopqrstuvwxyz+
(PID.TID 0000.0001) //                  0.0: .
(PID.TID 0000.0001) // RANGE I (Lo:Hi:Step):(  -1:  92:   1)
(PID.TID 0000.0001) // RANGE J (Lo:Hi:Step):(  42:  -1:  -1)
(PID.TID 0000.0001) // RANGE K (Lo:Hi:Step):(   1:   1:   1)
(PID.TID 0000.0001) // =======================================================
(PID.TID 0000.0001) K =   1
(PID.TID 0000.0001) //                I=8       I=18      I=28      I=38      I=48      I=58      I=68      I=78      I=88
(PID.TID 0000.0001) // |--J--|*01234567|901234567|901234567|901234567|901234567|901234567|901234567|901234567|901234567|9012
(PID.TID 0000.0001) //     42 ..............................................................................................
(PID.TID 0000.0001) //     41 ..............................................................................................
(PID.TID 0000.0001) //     40 ..............................................................................................
(PID.TID 0000.0001) //     39 ..............................................................................................
(PID.TID 0000.0001) //     38 ..............................................................................................
(PID.TID 0000.0001) //     37 ..............................................................................................
(PID.TID 0000.0001) //     36 ..............................................................................................
(PID.TID 0000.0001) //     35 ..............................................................................................
(PID.TID 0000.0001) //     34 ..............................................................................................
(PID.TID 0000.0001) //     33 .........................................---.---------........................................
(PID.TID 0000.0001) //     32 ........................................----.----------.......................................
(PID.TID 0000.0001) //     31 ......................................------.----------......................--...............
(PID.TID 0000.0001) //     30 ......................................----.--.-------------................----...............
(PID.TID 0000.0001) //     29 .....................................----.---...-----------...............--.---.....--.......
(PID.TID 0000.0001) //     28 .....................................-------------------..................------.....--.......
(PID.TID 0000.0001) //     27 .......................................--------.-...---...................------..-----.......
(PID.TID 0000.0001) //     26 .................................---..-----------....------...............------..----........
(PID.TID 0000.0001) //     25 .................................---..---..--.....---------.................---...--..........
(PID.TID 0000.0001) //     24 .................................--...-------------------.........................----........
(PID.TID 0000.0001) //     23 ......................................----...-----.------.........................----........
(PID.TID 0000.0001) //     22 .............................................------..-.--.....................................
(PID.TID 0000.0001) //     21 --...........................................------.......................................--..
(PID.TID 0000.0001) //     20 --............................................-------...............................---...--..
(PID.TID 0000.0001) //     19 ..--................---.......................----.----.............................---.....--
(PID.TID 0000.0001) //     18 .---................---....--.-.....................---.............................---....---
(PID.TID 0000.0001) //     17 .---................---.-------.....................--..............................---....---
(PID.TID 0000.0001) //     16 .---.................--.------...................---................................---....---
(PID.TID 0000.0001) //     15 .--......................-----..................----................................---....--.
(PID.TID 0000.0001) //     14 .--...........---........--.-...................------..............................---....--.
(PID.TID 0000.0001) //     13 ...--.........---...........--..................--------.....................................-
(PID.TID 0000.0001) //     12 ..---.......................--..---.............---------...................................--
(PID.TID 0000.0001) //     11 ..---.--........--...........--------...........-.---------....................-----........--
(PID.TID 0000.0001) //     10 ..--..-.--......--..............-----.............---------...................------........--
(PID.TID 0000.0001) //      9 .......---......................................-----------...................------..........
(PID.TID 0000.0001) //      8 .......--......................................------............................--...........
(PID.TID 0000.0001) //      7 .........--...--.............................------.................---.......................
(PID.TID 0000.0001) //      6 .----------------............................----.............---.-.---....................---
(PID.TID 0000.0001) //      5 -----------------...........................................--------.-.................-------
(PID.TID 0000.0001) //      4 --..------..................................................-------....................-----..
(PID.TID 0000.0001) //      3 ..............................................................................................
(PID.TID 0000.0001) //      2 ..............................................................................................
(PID.TID 0000.0001) //      1 ..............................................................................................
(PID.TID 0000.0001) //      0 ..............................................................................................
(PID.TID 0000.0001) //     -1 ..............................................................................................
(PID.TID 0000.0001) // =======================================================
(PID.TID 0000.0001) // END OF FIELD                                          =
(PID.TID 0000.0001) // =======================================================
(PID.TID 0000.0001) 
(PID.TID 0000.0001) // =======================================================
(PID.TID 0000.0001) // Field hFacW at iteration          1
(PID.TID 0000.0001) // CMIN =          1.000000000000000E+00
(PID.TID 0000.0001) // CMAX =          1.000000000000000E+00
(PID.TID 0000.0001) // CINT =          0.000000000000000E+00
(PID.TID 0000.0001) // SYMBOLS (CMIN->CMAX): -abcdefghijklmnopqrstuvwxyz+
(PID.TID 0000.0001) //                  0.0: .
(PID.TID 0000.0001) // RANGE I (Lo:Hi:Step):(  -1:  92:   1)
(PID.TID 0000.0001) // RANGE J (Lo:Hi:Step):(  42:  -1:  -1)
(PID.TID 0000.0001) // RANGE K (Lo:Hi:Step):(   1:   1:   1)
(PID.TID 0000.0001) // =======================================================
(PID.TID 0000.0001) K =   1
(PID.TID 0000.0001) //                I=8       I=18      I=28      I=38      I=48      I=58      I=68      I=78      I=88
(PID.TID 0000.0001) // |--J--|*01234567|901234567|901234567|901234567|901234567|901234567|901234567|901234567|901234567|9012
(PID.TID 0000.0001) //     42 ..............................................................................................
(PID.TID 0000.0001) //     41 ..............................................................................................
(PID.TID 0000.0001) //     40 ..............................................................................................
(PID.TID 0000.0001) //     39 ..............................................................................................
(PID.TID 0000.0001) //     38 ..............................................................................................
(PID.TID 0000.0001) //     37 ..............................................................................................
(PID.TID 0000.0001) //     36 ..............................................................................................
(PID.TID 0000.0001) //     35 ..............................................................................................
(PID.TID 0000.0001) //     34 ..............................................................................................
(PID.TID 0000.0001) //     33 ..........................................--..--------........................................
(PID.TID 0000.0001) //     32 .........................................---..---------.......................................
(PID.TID 0000.0001) //     31 .......................................-----..---------.......................-...............
(PID.TID 0000.0001) //     30 .......................................---..-..------------.................---...............
(PID.TID 0000.0001) //     29 ......................................---..--....----------................-..--......-.......
(PID.TID 0000.0001) //     28 ......................................------------------...................-----......-.......
(PID.TID 0000.0001) //     27 ........................................-------......--....................-----...----.......
(PID.TID 0000.0001) //     26 ..................................--...----------.....-----................-----...---........
(PID.TID 0000.0001) //     25 ..................................--...--...-......--------..................--....-..........
(PID.TID 0000.0001) //     24 ..................................-....------------------..........................---........
(PID.TID 0000.0001) //     23 .......................................---....----..-----..........................---........
(PID.TID 0000.0001) //     22 ..............................................-----.....-.....................................
(PID.TID 0000.0001) //     21 .-............................................-----........................................-..
(PID.TID 0000.0001) //     20 .-.............................................------................................--....-..
(PID.TID 0000.0001) //     19 ...-.................--........................---..---..............................--......-
(PID.TID 0000.0001) //     18 ..--.................--.....-........................--..............................--.....--
(PID.TID 0000.0001) //     17 ..--.................--..------......................-...............................--.....--
(PID.TID 0000.0001) //     16 ..--..................-..-----....................--.................................--.....--
(PID.TID 0000.0001) //     15 ..-.......................----...................---.................................--.....-.
(PID.TID 0000.0001) //     14 ..-............--.........-......................-----...............................--.....-.
(PID.TID 0000.0001) //     13 ....-..........--............-...................-------......................................
(PID.TID 0000.0001) //     12 ...--........................-...--..............--------....................................-
(PID.TID 0000.0001) //     11 ...--..-.........-............-------..............--------.....................----.........-
(PID.TID 0000.0001) //     10 ...-.....-.......-...............----..............--------....................-----.........-
(PID.TID 0000.0001) //      9 ........--.......................................----------....................-----..........
(PID.TID 0000.0001) //      8 ........-.......................................-----.............................-...........
(PID.TID 0000.0001) //      7 ..........-....-..............................-----..................--.......................
(PID.TID 0000.0001) //      6 ..---------------.............................---..............--....--.....................--
(PID.TID 0000.0001) //      5 -----------------............................................-------....................------
(PID.TID 0000.0001) //      4 --...-----...................................................------.....................----..
(PID.TID 0000.0001) //      3 ..............................................................................................
(PID.TID 0000.0001) //      2 ..............................................................................................
(PID.TID 0000.0001) //      1 ..............................................................................................
(PID.TID 0000.0001) //      0 ..............................................................................................
(PID.TID 0000.0001) //     -1 ..............................................................................................
(PID.TID 0000.0001) // =======================================================
(PID.TID 0000.0001) // END OF FIELD                                          =
(PID.TID 0000.0001) // =======================================================
(PID.TID 0000.0001) 
(PID.TID 0000.0001) // =======================================================
(PID.TID 0000.0001) // Field hFacS at iteration          1
(PID.TID 0000.0001) // CMIN =          1.000000000000000E+00
(PID.TID 0000.0001) // CMAX =          1.000000000000000E+00
(PID.TID 0000.0001) // CINT =          0.000000000000000E+00
(PID.TID 0000.0001) // SYMBOLS (CMIN->CMAX): -abcdefghijklmnopqrstuvwxyz+
(PID.TID 0000.0001) //                  0.0: .
(PID.TID 0000.0001) // RANGE I (Lo:Hi:Step):(  -1:  92:   1)
(PID.TID 0000.0001) // RANGE J (Lo:Hi:Step):(  42:  -1:  -1)
(PID.TID 0000.0001) // RANGE K (Lo:Hi:Step):(   1:   1:   1)
(PID.TID 0000.0001) // =======================================================
(PID.TID 0000.0001) K =   1
(PID.TID 0000.0001) //                I=8       I=18      I=28      I=38      I=48      I=58      I=68      I=78      I=88
(PID.TID 0000.0001) // |--J--|*01234567|901234567|901234567|901234567|901234567|901234567|901234567|901234567|901234567|9012
(PID.TID 0000.0001) //     42 ..............................................................................................
(PID.TID 0000.0001) //     41 ..............................................................................................
(PID.TID 0000.0001) //     40 ..............................................................................................
(PID.TID 0000.0001) //     39 ..............................................................................................
(PID.TID 0000.0001) //     38 ..............................................................................................
(PID.TID 0000.0001) //     37 ..............................................................................................
(PID.TID 0000.0001) //     36 ..............................................................................................
(PID.TID 0000.0001) //     35 ..............................................................................................
(PID.TID 0000.0001) //     34 ..............................................................................................
(PID.TID 0000.0001) //     33 .........................................---.---------........................................
(PID.TID 0000.0001) //     32 ........................................----.----------.......................................
(PID.TID 0000.0001) //     31 ......................................----.-..---------......................--...............
(PID.TID 0000.0001) //     30 ......................................---..--...-----------................-.--...............
(PID.TID 0000.0001) //     29 .....................................----.---...--------..................--.---.....--.......
(PID.TID 0000.0001) //     28 .......................................--------.-...---...................------.....--.......
(PID.TID 0000.0001) //     27 .......................................--------.-....--...................------..----........
(PID.TID 0000.0001) //     26 .................................---..---..--........------.................---...--..........
(PID.TID 0000.0001) //     25 .................................--...---..--.....-------.........................--..........
(PID.TID 0000.0001) //     24 ......................................----...-----.------.........................----........
(PID.TID 0000.0001) //     23 .............................................-----...-.--.....................................
(PID.TID 0000.0001) //     22 .............................................------...........................................
(PID.TID 0000.0001) //     21 --............................................-----.......................................--..
(PID.TID 0000.0001) //     20 ..............................................----.--...............................---.......
(PID.TID 0000.0001) //     19 ..--................---.............................---.............................---.....--
(PID.TID 0000.0001) //     18 .---................---....--.-.....................--..............................---....---
(PID.TID 0000.0001) //     17 .---.................--.------......................................................---....---
(PID.TID 0000.0001) //     16 .--......................-----...................---................................---....--.
(PID.TID 0000.0001) //     15 .--......................--.-...................----................................---....--.
(PID.TID 0000.0001) //     14 ..............---...........-...................------........................................
(PID.TID 0000.0001) //     13 ...--.......................--..................--------.....................................-
(PID.TID 0000.0001) //     12 ..---........................-..---.............-.-------...................................--
(PID.TID 0000.0001) //     11 ..--..-.........--..............-----.............---------....................-----........--
(PID.TID 0000.0001) //     10 ........--........................................---------...................------..........
(PID.TID 0000.0001) //      9 .......--.......................................-----............................--...........
(PID.TID 0000.0001) //      8 ...............................................----...........................................
(PID.TID 0000.0001) //      7 .........--...--.............................----...................---.......................
(PID.TID 0000.0001) //      6 .----------------.............................................---.-..-.....................---
(PID.TID 0000.0001) //      5 --..------..................................................-------....................-----..
(PID.TID 0000.0001) //      4 ..............................................................................................
(PID.TID 0000.0001) //      3 ..............................................................................................
(PID.TID 0000.0001) //      2 ..............................................................................................
(PID.TID 0000.0001) //      1 ..............................................................................................
(PID.TID 0000.0001) //      0 ..............................................................................................
(PID.TID 0000.0001) //     -1 ..............................................................................................
(PID.TID 0000.0001) // =======================================================
(PID.TID 0000.0001) // END OF FIELD                                          =
(PID.TID 0000.0001) // =======================================================
(PID.TID 0000.0001) 
(PID.TID 0000.0001)  PACKAGES_BOOT: opening data.pkg
(PID.TID 0000.0001)  OPEN_COPY_DATA_FILE: opening file data.pkg
(PID.TID 0000.0001) // =======================================================
(PID.TID 0000.0001) // Parameter file "data.pkg"
(PID.TID 0000.0001) // =======================================================
(PID.TID 0000.0001) ># Packages
(PID.TID 0000.0001) > &PACKAGES
(PID.TID 0000.0001) > &
(PID.TID 0000.0001) 
(PID.TID 0000.0001)  PACKAGES_BOOT: finished reading data.pkg
(PID.TID 0000.0001) 
(PID.TID 0000.0001) // ===================================
(PID.TID 0000.0001) // GAD parameters :
(PID.TID 0000.0001) // ===================================
(PID.TID 0000.0001) tempAdvScheme =   /* Temp. advection scheme selector */
(PID.TID 0000.0001)                       2
(PID.TID 0000.0001)     ;
(PID.TID 0000.0001) tempMultiDimAdvec =   /* use Muti-Dim Advec method for Temp */
(PID.TID 0000.0001)                   F
(PID.TID 0000.0001)     ;
(PID.TID 0000.0001) tempAdamsBashforth =   /* use Adams-Bashforth time-stepping for Temp */
(PID.TID 0000.0001)                   T
(PID.TID 0000.0001)     ;
(PID.TID 0000.0001) saltAdvScheme =   /* Salt. advection scheme selector */
(PID.TID 0000.0001)                       2
(PID.TID 0000.0001)     ;
(PID.TID 0000.0001) saltMultiDimAdvec =   /* use Muti-Dim Advec method for Salt */
(PID.TID 0000.0001)                   F
(PID.TID 0000.0001)     ;
(PID.TID 0000.0001) saltAdamsBashforth =   /* use Adams-Bashforth time-stepping for Salt */
(PID.TID 0000.0001)                   T
(PID.TID 0000.0001)     ;
(PID.TID 0000.0001) // ===================================
(PID.TID 0000.0001) %MON fCori_max                    =   1.4226580169407E-04
(PID.TID 0000.0001) %MON fCori_min                    =  -1.4226580169407E-04
(PID.TID 0000.0001) %MON fCori_mean                   =   7.5291817533716E-23
(PID.TID 0000.0001) %MON fCori_sd                     =   9.6335367303778E-05
(PID.TID 0000.0001) %MON fCoriG_max                   =   1.4112379284621E-04
(PID.TID 0000.0001) %MON fCoriG_min                   =  -1.4323448157692E-04
(PID.TID 0000.0001) %MON fCoriG_mean                  =  -3.6726790147928E-06
(PID.TID 0000.0001) %MON fCoriG_sd                    =   9.7510077443652E-05
(PID.TID 0000.0001) %MON fCoriCos_max                 =   1.4535550371427E-04
(PID.TID 0000.0001) %MON fCoriCos_min                 =   3.0239529651320E-05
(PID.TID 0000.0001) %MON fCoriCos_mean                =   1.0260497651149E-04
(PID.TID 0000.0001) %MON fCoriCos_sd                  =   3.6683828681187E-05
(PID.TID 0000.0001) // CG2D normalisation factor =          0.6002578945994698667540502E-08
(PID.TID 0000.0001) 
(PID.TID 0000.0001) CONFIG_CHECK: OK
(PID.TID 0000.0001) // =======================================================
(PID.TID 0000.0001) // Model configuration
(PID.TID 0000.0001) // =======================================================
(PID.TID 0000.0001) //
(PID.TID 0000.0001) // "Physical" paramters ( PARM01 in namelist )
(PID.TID 0000.0001) //
(PID.TID 0000.0001) buoyancyRelation = OCEANICP
(PID.TID 0000.0001) tRef =   /* Reference temperature profile ( oC or oK ) */
(PID.TID 0000.0001)    15 @  2.000000000000000E+01              /* K =  1: 15 */
(PID.TID 0000.0001)     ;
(PID.TID 0000.0001) sRef =   /* Reference salinity profile ( ppt ) */
(PID.TID 0000.0001)    15 @  3.500000000000000E+01              /* K =  1: 15 */
(PID.TID 0000.0001)     ;
(PID.TID 0000.0001) viscAh =   /* Lateral eddy viscosity ( m^2/s ) */
(PID.TID 0000.0001)                 3.000000000000000E+05
(PID.TID 0000.0001)     ;
(PID.TID 0000.0001) viscAh =   /* Lateral biharmonic viscosity ( m^4/s ) */
(PID.TID 0000.0001)                 0.000000000000000E+00
(PID.TID 0000.0001)     ;
(PID.TID 0000.0001) no_slip_sides =  /* Viscous BCs: No-slip sides */
(PID.TID 0000.0001)                   T
(PID.TID 0000.0001)     ;
(PID.TID 0000.0001) viscAr =   /* Vertical eddy viscosity ( units of r^2/s ) */
(PID.TID 0000.0001)                 1.721611620915750E+05
(PID.TID 0000.0001)     ;
(PID.TID 0000.0001) diffKhT =   /* Laplacian diffusion of heat laterally ( m^2/s ) */
(PID.TID 0000.0001)                 1.000000000000000E+03
(PID.TID 0000.0001)     ;
(PID.TID 0000.0001) diffK4T =   /* Bihaarmonic diffusion of heat laterally ( m^4/s ) */
(PID.TID 0000.0001)                 0.000000000000000E+00
(PID.TID 0000.0001)     ;
(PID.TID 0000.0001) diffKzT =   /* Laplacian diffusion of heat vertically ( m^2/s ) */
(PID.TID 0000.0001)                 1.234567000000000E+05
(PID.TID 0000.0001)     ;
(PID.TID 0000.0001) diffKrT =   /* Laplacian diffusion of heat vertically ( m^2/s ) */
(PID.TID 0000.0001)                 5.154525811125000E+03
(PID.TID 0000.0001)     ;
(PID.TID 0000.0001) diffKhS =   /* Laplacian diffusion of salt laterally ( m^2/s ) */
(PID.TID 0000.0001)                 1.000000000000000E+03
(PID.TID 0000.0001)     ;
(PID.TID 0000.0001) diffK4S =   /* Bihaarmonic diffusion of salt laterally ( m^4/s ) */
(PID.TID 0000.0001)                 0.000000000000000E+00
(PID.TID 0000.0001)     ;
(PID.TID 0000.0001) diffKzS =   /* Laplacian diffusion of salt vertically ( m^2/s ) */
(PID.TID 0000.0001)                 1.234567000000000E+05
(PID.TID 0000.0001)     ;
(PID.TID 0000.0001) diffKrS =   /* Laplacian diffusion of salt vertically ( m^2/s ) */
(PID.TID 0000.0001)                 5.154525811125000E+03
(PID.TID 0000.0001)     ;
(PID.TID 0000.0001)  Equation of State : eosType = JMD95P
(PID.TID 0000.0001) tAlpha =   /* Linear EOS thermal expansion coefficient ( 1/degree ) */
(PID.TID 0000.0001)                 1.234567000000000E+05
(PID.TID 0000.0001)     ;
(PID.TID 0000.0001) sBeta =   /* Linear EOS haline contraction coefficient ( 1/ppt ) */
(PID.TID 0000.0001)                 1.234567000000000E+05
(PID.TID 0000.0001)     ;
(PID.TID 0000.0001) rhonil =   /* Reference density ( kg/m^3 ) */
(PID.TID 0000.0001)                 1.035000000000000E+03
(PID.TID 0000.0001)     ;
(PID.TID 0000.0001) rhoConst =   /* Reference density ( kg/m^3 ) */
(PID.TID 0000.0001)                 1.035000000000000E+03
(PID.TID 0000.0001)     ;
(PID.TID 0000.0001) rhoConstFresh =   /* Reference density ( kg/m^3 ) */
(PID.TID 0000.0001)                 9.998000000000000E+02
(PID.TID 0000.0001)     ;
(PID.TID 0000.0001) gravity =   /* Gravitational acceleration ( m/s^2 ) */
(PID.TID 0000.0001)                 9.810000000000000E+00
(PID.TID 0000.0001)     ;
(PID.TID 0000.0001) gBaro =   /* Barotropic gravity ( m/s^2 ) */
(PID.TID 0000.0001)                 9.810000000000000E+00
(PID.TID 0000.0001)     ;
(PID.TID 0000.0001) rotationPeriod =   /* Rotation Period ( s ) */
(PID.TID 0000.0001)                 8.640000000000000E+04
(PID.TID 0000.0001)     ;
(PID.TID 0000.0001) omega =   /* Angular velocity ( rad/s ) */
(PID.TID 0000.0001)                 7.272205216643040E-05
(PID.TID 0000.0001)     ;
(PID.TID 0000.0001) f0 =   /* Reference coriolis parameter ( 1/s ) */
(PID.TID 0000.0001)                 1.000000000000000E-04
(PID.TID 0000.0001)     ;
(PID.TID 0000.0001) beta =   /* Beta ( 1/(m.s) ) */
(PID.TID 0000.0001)                 9.999999999999999E-12
(PID.TID 0000.0001)     ;
(PID.TID 0000.0001) freeSurfFac =   /* Implicit free surface factor */
(PID.TID 0000.0001)                 1.000000000000000E+00
(PID.TID 0000.0001)     ;
(PID.TID 0000.0001) implicitFreeSurface =   /* Implicit free surface on/off flag */
(PID.TID 0000.0001)                   T
(PID.TID 0000.0001)     ;
(PID.TID 0000.0001) rigidLid =   /* Rigid lid on/off flag */
(PID.TID 0000.0001)                   F
(PID.TID 0000.0001)     ;
(PID.TID 0000.0001) implicSurfPress =   /* Surface Pressure implicit factor (0-1)*/
(PID.TID 0000.0001)                 1.000000000000000E+00
(PID.TID 0000.0001)     ;
(PID.TID 0000.0001) implicDiv2Dflow =   /* Barot. Flow Div. implicit factor (0-1)*/
(PID.TID 0000.0001)                 1.000000000000000E+00
(PID.TID 0000.0001)     ;
(PID.TID 0000.0001) exactConserv =   /* Exact Volume Conservation on/off flag*/
(PID.TID 0000.0001)                   T
(PID.TID 0000.0001)     ;
(PID.TID 0000.0001) uniformLin_PhiSurf =   /* use uniform Bo_surf on/off flag*/
(PID.TID 0000.0001)                   T
(PID.TID 0000.0001)     ;
(PID.TID 0000.0001) nonlinFreeSurf =   /* Non-linear Free Surf. options (-1,0,1,2,3)*/
(PID.TID 0000.0001)                       4
(PID.TID 0000.0001)     ;
(PID.TID 0000.0001)      -1,0= Off ; 1,2,3= On, 2=+rescale gU,gV, 3=+update cg2d solv.
(PID.TID 0000.0001) hFacInf =   /* lower threshold for hFac (nonlinFreeSurf only)*/
(PID.TID 0000.0001)                 2.000000000000000E-01
(PID.TID 0000.0001)     ;
(PID.TID 0000.0001) hFacSup =   /* upper threshold for hFac (nonlinFreeSurf only)*/
(PID.TID 0000.0001)                 2.000000000000000E+00
(PID.TID 0000.0001)     ;
(PID.TID 0000.0001) select_rStar =   /* r* Coordinate options (not yet implemented)*/
(PID.TID 0000.0001)                       0
(PID.TID 0000.0001)     ;
(PID.TID 0000.0001) useRealFreshWaterFlux =   /* Real Fresh Water Flux on/off flag*/
(PID.TID 0000.0001)                   F
(PID.TID 0000.0001)     ;
(PID.TID 0000.0001) convertFW2Salt = /* convert F.W. Flux to Salt Flux (-1=use local S)(ppt)*/
(PID.TID 0000.0001)                 3.500000000000000E+01
(PID.TID 0000.0001)     ;
(PID.TID 0000.0001) multiDimAdvection =   /* enable/disable Multi-Dim Advection */
(PID.TID 0000.0001)                   T
(PID.TID 0000.0001)     ;
(PID.TID 0000.0001) staggerTimeStep =   /* Stagger time stepping on/off flag */
(PID.TID 0000.0001)                   F
(PID.TID 0000.0001)     ;
(PID.TID 0000.0001) momStepping =  /* Momentum equation on/off flag */
(PID.TID 0000.0001)                   T
(PID.TID 0000.0001)     ;
(PID.TID 0000.0001) momAdvection =  /* Momentum advection on/off flag */
(PID.TID 0000.0001)                   T
(PID.TID 0000.0001)     ;
(PID.TID 0000.0001) momViscosity =  /* Momentum viscosity on/off flag */
(PID.TID 0000.0001)                   T
(PID.TID 0000.0001)     ;
(PID.TID 0000.0001) useCoriolis =  /* Coriolis on/off flag */
(PID.TID 0000.0001)                   T
(PID.TID 0000.0001)     ;
(PID.TID 0000.0001) momForcing =  /* Momentum forcing on/off flag */
(PID.TID 0000.0001)                   T
(PID.TID 0000.0001)     ;
(PID.TID 0000.0001) momPressureForcing =  /* Momentum pressure term on/off flag */
(PID.TID 0000.0001)                   T
(PID.TID 0000.0001)     ;
(PID.TID 0000.0001) tempStepping =  /* Temperature equation on/off flag */
(PID.TID 0000.0001)                   T
(PID.TID 0000.0001)     ;
(PID.TID 0000.0001) tempAdvection=  /* Temperature advection on/off flag */
(PID.TID 0000.0001)                   T
(PID.TID 0000.0001)     ;
(PID.TID 0000.0001) tempForcing  =  /* Temperature forcing on/off flag */
(PID.TID 0000.0001)                   T
(PID.TID 0000.0001)     ;
(PID.TID 0000.0001) saltStepping =  /* Salinity equation on/off flag */
(PID.TID 0000.0001)                   T
(PID.TID 0000.0001)     ;
(PID.TID 0000.0001) saltAdvection=  /* Salinity advection on/off flag */
(PID.TID 0000.0001)                   T
(PID.TID 0000.0001)     ;
(PID.TID 0000.0001) saltForcing  =  /* Salinity forcing on/off flag */
(PID.TID 0000.0001)                   T
(PID.TID 0000.0001)     ;
(PID.TID 0000.0001) nonHydrostatic =  /* Non-Hydrostatic on/off flag */
(PID.TID 0000.0001)                   F
(PID.TID 0000.0001)     ;
(PID.TID 0000.0001) useCDscheme =  /* CD scheme on/off flag */
(PID.TID 0000.0001)                   F
(PID.TID 0000.0001)     ;
(PID.TID 0000.0001) useJamartWetPoints= /* Coriolis WetPoints method flag */
(PID.TID 0000.0001)                   F
(PID.TID 0000.0001)     ;
(PID.TID 0000.0001) //
(PID.TID 0000.0001) // Elliptic solver(s) paramters ( PARM02 in namelist )
(PID.TID 0000.0001) //
(PID.TID 0000.0001) cg2dMaxIters =   /* Upper limit on 2d con. grad iterations  */
(PID.TID 0000.0001)                     200
(PID.TID 0000.0001)     ;
(PID.TID 0000.0001) cg2dChkResFreq =   /* 2d con. grad convergence test frequency */
(PID.TID 0000.0001)                       1
(PID.TID 0000.0001)     ;
(PID.TID 0000.0001) cg2dTargetResidual =   /* 2d con. grad target residual  */
(PID.TID 0000.0001)                 1.000000000000000E-09
(PID.TID 0000.0001)     ;
(PID.TID 0000.0001) //
(PID.TID 0000.0001) // Time stepping paramters ( PARM03 in namelist )
(PID.TID 0000.0001) //
(PID.TID 0000.0001) nIter0 =   /* Base timestep number  */
(PID.TID 0000.0001)                       0
(PID.TID 0000.0001)     ;
(PID.TID 0000.0001) nTimeSteps =   /* Number of timesteps */
(PID.TID 0000.0001)                      20
(PID.TID 0000.0001)     ;
(PID.TID 0000.0001) deltatTmom =   /* Momentum equation timestep ( s ) */
(PID.TID 0000.0001)                 1.200000000000000E+03
(PID.TID 0000.0001)     ;
(PID.TID 0000.0001) deltaTfreesurf =   /* FreeSurface equation timestep ( s ) */
(PID.TID 0000.0001)                 1.728000000000000E+05
(PID.TID 0000.0001)     ;
(PID.TID 0000.0001) deltatTtracer =   /* Tracer equation timestep ( s ) */
(PID.TID 0000.0001)                 1.728000000000000E+05
(PID.TID 0000.0001)     ;
(PID.TID 0000.0001) deltatTClock  =   /* Model clock timestep ( s ) */
(PID.TID 0000.0001)                 1.728000000000000E+05
(PID.TID 0000.0001)     ;
(PID.TID 0000.0001) cAdjFreq =   /* Convective adjustment interval ( s ) */
(PID.TID 0000.0001)                 0.000000000000000E+00
(PID.TID 0000.0001)     ;
(PID.TID 0000.0001) forcing_In_AB =   /* put T,S Forcing in Adams-Bash. stepping */
(PID.TID 0000.0001)                   T
(PID.TID 0000.0001)     ;
(PID.TID 0000.0001) abeps =   /* Adams-Bashforth stabilizing weight */
(PID.TID 0000.0001)                 1.000000000000000E-01
(PID.TID 0000.0001)     ;
(PID.TID 0000.0001) startTime =   /* Run start time ( s ). */
(PID.TID 0000.0001)                 0.000000000000000E+00
(PID.TID 0000.0001)     ;
(PID.TID 0000.0001) endTime =   /* Integration ending time ( s ). */
(PID.TID 0000.0001)                 3.456000000000000E+06
(PID.TID 0000.0001)     ;
(PID.TID 0000.0001) pChkPtFreq =   /* Permanent restart/checkpoint file interval ( s ). */
(PID.TID 0000.0001)                 3.110400000000000E+09
(PID.TID 0000.0001)     ;
(PID.TID 0000.0001) chkPtFreq =   /* Rolling restart/checkpoint file interval ( s ). */
(PID.TID 0000.0001)                 0.000000000000000E+00
(PID.TID 0000.0001)     ;
(PID.TID 0000.0001) dumpFreq =   /* Model state write out interval ( s ). */
(PID.TID 0000.0001)                 3.110400000000000E+09
(PID.TID 0000.0001)     ;
(PID.TID 0000.0001) externForcingPeriod =   /* forcing period (s) */
(PID.TID 0000.0001)                 2.592000000000000E+06
(PID.TID 0000.0001)     ;
(PID.TID 0000.0001) externForcingCycle =   /* period of the cyle (s). */
(PID.TID 0000.0001)                 3.110400000000000E+07
(PID.TID 0000.0001)     ;
(PID.TID 0000.0001) tauThetaClimRelax =   /* relaxation time scale (s) */
(PID.TID 0000.0001)                 5.184000000000000E+06
(PID.TID 0000.0001)     ;
(PID.TID 0000.0001) tauSaltClimRelax =   /* relaxation time scale (s) */
(PID.TID 0000.0001)                 0.000000000000000E+00
(PID.TID 0000.0001)     ;
(PID.TID 0000.0001) latBandClimRelax =   /* max. Lat. where relaxation */
(PID.TID 0000.0001)                 1.800000000000000E+02
(PID.TID 0000.0001)     ;
(PID.TID 0000.0001) //
(PID.TID 0000.0001) // Gridding paramters ( PARM04 in namelist )
(PID.TID 0000.0001) //
(PID.TID 0000.0001) usingCartesianGrid =   /* Cartesian coordinates flag ( True / False ) */
(PID.TID 0000.0001)                   F
(PID.TID 0000.0001)     ;
(PID.TID 0000.0001) usingSphericalPolarGrid =   /* Spherical coordinates flag ( True / False ) */
(PID.TID 0000.0001)                   T
(PID.TID 0000.0001)     ;
(PID.TID 0000.0001) groundAtK1 =   /* Lower Boundary (ground) at the surface(k=1) ( T / F ) */
(PID.TID 0000.0001)                   T
(PID.TID 0000.0001)     ;
(PID.TID 0000.0001) Ro_SeaLevel =   /* r(1) ( units of r ) */
(PID.TID 0000.0001)                 5.302312256608400E+07
(PID.TID 0000.0001)     ;
(PID.TID 0000.0001) rkFac =   /* minus Vertical index orientation  */
(PID.TID 0000.0001)                 1.000000000000000E+00
(PID.TID 0000.0001)     ;
(PID.TID 0000.0001) horiVertRatio =   /* Ratio on units : Horiz - Vertical */
(PID.TID 0000.0001)                 1.015335000000000E+04
(PID.TID 0000.0001)     ;
(PID.TID 0000.0001) drC =   /* C spacing ( units of r ) */
(PID.TID 0000.0001)                 3.551650360010500E+06,      /* K =  1 */
(PID.TID 0000.0001)                 6.836924580405500E+06,      /* K =  2 */
(PID.TID 0000.0001)                 6.306109225519501E+06,      /* K =  3 */
(PID.TID 0000.0001)                 5.779053338153000E+06,      /* K =  4 */
(PID.TID 0000.0001)                 5.255519350233500E+06,      /* K =  5 */
(PID.TID 0000.0001)                 4.735252734850001E+06,      /* K =  6 */
(PID.TID 0000.0001)                 4.217983340545500E+06,      /* K =  7 */
(PID.TID 0000.0001)                 3.703426779226000E+06,      /* K =  8 */
(PID.TID 0000.0001)                 3.191285859157500E+06,      /* K =  9 */
(PID.TID 0000.0001)                 2.681252055355000E+06,      /* K = 10 */
(PID.TID 0000.0001)                 2.173007010517000E+06,      /* K = 11 */
(PID.TID 0000.0001)                 1.666224060479000E+06,      /* K = 12 */
(PID.TID 0000.0001)                 1.211001777568000E+06,      /* K = 13 */
(PID.TID 0000.0001)                 8.573828878235000E+05,      /* K = 14 */
(PID.TID 0000.0001)                 6.050043594899999E+05       /* K = 15 */
(PID.TID 0000.0001)     ;
(PID.TID 0000.0001) drF =   /* W spacing ( units of r ) */
(PID.TID 0000.0001)                 7.103300720021000E+06,      /* K =  1 */
(PID.TID 0000.0001)                 6.570548440790000E+06,      /* K =  2 */
(PID.TID 0000.0001)                 6.041670010249000E+06,      /* K =  3 */
(PID.TID 0000.0001)                 5.516436666057000E+06,      /* K =  4 */
(PID.TID 0000.0001)                 4.994602034410000E+06,      /* K =  5 */
(PID.TID 0000.0001)                 4.475903435290000E+06,      /* K =  6 */
(PID.TID 0000.0001)                 3.960063245801000E+06,      /* K =  7 */
(PID.TID 0000.0001)                 3.446790312651000E+06,      /* K =  8 */
(PID.TID 0000.0001)                 2.935781405664000E+06,      /* K =  9 */
(PID.TID 0000.0001)                 2.426722705046000E+06,      /* K = 10 */
(PID.TID 0000.0001)                 1.919291315988000E+06,      /* K = 11 */
(PID.TID 0000.0001)                 1.413156804970000E+06,      /* K = 12 */
(PID.TID 0000.0001)                 1.008846750166000E+06,      /* K = 13 */
(PID.TID 0000.0001)                 7.059190254810000E+05,      /* K = 14 */
(PID.TID 0000.0001)                 5.040896934990000E+05       /* K = 15 */
(PID.TID 0000.0001)     ;
(PID.TID 0000.0001) delX =   /* U spacing ( m - cartesian, degrees - spherical ) */
(PID.TID 0000.0001)    90 @  4.000000000000000E+00              /* I =  1: 90 */
(PID.TID 0000.0001)     ;
(PID.TID 0000.0001) delY =   /* V spacing ( m - cartesian, degrees - spherical ) */
(PID.TID 0000.0001)    40 @  4.000000000000000E+00              /* J =  1: 40 */
(PID.TID 0000.0001)     ;
(PID.TID 0000.0001) phiMin =    /* South edge (ignored - cartesian, degrees - spherical ) */
(PID.TID 0000.0001)                -8.000000000000000E+01
(PID.TID 0000.0001)     ;
(PID.TID 0000.0001) thetaMin =    /* West edge ( ignored - cartesian, degrees - spherical ) */
(PID.TID 0000.0001)                 0.000000000000000E+00
(PID.TID 0000.0001)     ;
(PID.TID 0000.0001) rSphere =    /* Radius ( ignored - cartesian, m - spherical ) */
(PID.TID 0000.0001)                 6.370000000000000E+06
(PID.TID 0000.0001)     ;
(PID.TID 0000.0001) xcoord =   /* P-point X coord ( m - cartesian, degrees - spherical ) */
(PID.TID 0000.0001)                 2.000000000000000E+00,      /* I =  1 */
(PID.TID 0000.0001)                 6.000000000000000E+00,      /* I =  2 */
(PID.TID 0000.0001)                 1.000000000000000E+01,      /* I =  3 */
(PID.TID 0000.0001)                 1.400000000000000E+01,      /* I =  4 */
(PID.TID 0000.0001)                 1.800000000000000E+01,      /* I =  5 */
(PID.TID 0000.0001)                 2.200000000000000E+01,      /* I =  6 */
(PID.TID 0000.0001)                 2.600000000000000E+01,      /* I =  7 */
(PID.TID 0000.0001)                 3.000000000000000E+01,      /* I =  8 */
(PID.TID 0000.0001)                 3.400000000000000E+01,      /* I =  9 */
(PID.TID 0000.0001)                 3.800000000000000E+01,      /* I = 10 */
(PID.TID 0000.0001)                 4.200000000000000E+01,      /* I = 11 */
(PID.TID 0000.0001)                 4.600000000000000E+01,      /* I = 12 */
(PID.TID 0000.0001)                 5.000000000000000E+01,      /* I = 13 */
(PID.TID 0000.0001)                 5.400000000000000E+01,      /* I = 14 */
(PID.TID 0000.0001)                 5.800000000000000E+01,      /* I = 15 */
(PID.TID 0000.0001)                 6.200000000000000E+01,      /* I = 16 */
(PID.TID 0000.0001)                 6.600000000000000E+01,      /* I = 17 */
(PID.TID 0000.0001)                 7.000000000000000E+01,      /* I = 18 */
(PID.TID 0000.0001)                 7.400000000000000E+01,      /* I = 19 */
(PID.TID 0000.0001)                 7.800000000000000E+01,      /* I = 20 */
(PID.TID 0000.0001)                 8.200000000000000E+01,      /* I = 21 */
(PID.TID 0000.0001)                 8.600000000000000E+01,      /* I = 22 */
(PID.TID 0000.0001)                 9.000000000000000E+01,      /* I = 23 */
(PID.TID 0000.0001)                 9.400000000000000E+01,      /* I = 24 */
(PID.TID 0000.0001)                 9.800000000000000E+01,      /* I = 25 */
(PID.TID 0000.0001)                 1.020000000000000E+02,      /* I = 26 */
(PID.TID 0000.0001)                 1.060000000000000E+02,      /* I = 27 */
(PID.TID 0000.0001)                 1.100000000000000E+02,      /* I = 28 */
(PID.TID 0000.0001)                 1.140000000000000E+02,      /* I = 29 */
(PID.TID 0000.0001)                 1.180000000000000E+02,      /* I = 30 */
(PID.TID 0000.0001)                 1.220000000000000E+02,      /* I = 31 */
(PID.TID 0000.0001)                 1.260000000000000E+02,      /* I = 32 */
(PID.TID 0000.0001)                 1.300000000000000E+02,      /* I = 33 */
(PID.TID 0000.0001)                 1.340000000000000E+02,      /* I = 34 */
(PID.TID 0000.0001)                 1.380000000000000E+02,      /* I = 35 */
(PID.TID 0000.0001)                 1.420000000000000E+02,      /* I = 36 */
(PID.TID 0000.0001)                 1.460000000000000E+02,      /* I = 37 */
(PID.TID 0000.0001)                 1.500000000000000E+02,      /* I = 38 */
(PID.TID 0000.0001)                 1.540000000000000E+02,      /* I = 39 */
(PID.TID 0000.0001)                 1.580000000000000E+02,      /* I = 40 */
(PID.TID 0000.0001)                 1.620000000000000E+02,      /* I = 41 */
(PID.TID 0000.0001)                 1.660000000000000E+02,      /* I = 42 */
(PID.TID 0000.0001)                 1.700000000000000E+02,      /* I = 43 */
(PID.TID 0000.0001)                 1.740000000000000E+02,      /* I = 44 */
(PID.TID 0000.0001)                 1.780000000000000E+02,      /* I = 45 */
(PID.TID 0000.0001)                 1.820000000000000E+02,      /* I = 46 */
(PID.TID 0000.0001)                 1.860000000000000E+02,      /* I = 47 */
(PID.TID 0000.0001)                 1.900000000000000E+02,      /* I = 48 */
(PID.TID 0000.0001)                 1.940000000000000E+02,      /* I = 49 */
(PID.TID 0000.0001)                 1.980000000000000E+02,      /* I = 50 */
(PID.TID 0000.0001)                 2.020000000000000E+02,      /* I = 51 */
(PID.TID 0000.0001)                 2.060000000000000E+02,      /* I = 52 */
(PID.TID 0000.0001)                 2.100000000000000E+02,      /* I = 53 */
(PID.TID 0000.0001)                 2.140000000000000E+02,      /* I = 54 */
(PID.TID 0000.0001)                 2.180000000000000E+02,      /* I = 55 */
(PID.TID 0000.0001)                 2.220000000000000E+02,      /* I = 56 */
(PID.TID 0000.0001)                 2.260000000000000E+02,      /* I = 57 */
(PID.TID 0000.0001)                 2.300000000000000E+02,      /* I = 58 */
(PID.TID 0000.0001)                 2.340000000000000E+02,      /* I = 59 */
(PID.TID 0000.0001)                 2.380000000000000E+02,      /* I = 60 */
(PID.TID 0000.0001)                 2.420000000000000E+02,      /* I = 61 */
(PID.TID 0000.0001)                 2.460000000000000E+02,      /* I = 62 */
(PID.TID 0000.0001)                 2.500000000000000E+02,      /* I = 63 */
(PID.TID 0000.0001)                 2.540000000000000E+02,      /* I = 64 */
(PID.TID 0000.0001)                 2.580000000000000E+02,      /* I = 65 */
(PID.TID 0000.0001)                 2.620000000000000E+02,      /* I = 66 */
(PID.TID 0000.0001)                 2.660000000000000E+02,      /* I = 67 */
(PID.TID 0000.0001)                 2.700000000000000E+02,      /* I = 68 */
(PID.TID 0000.0001)                 2.740000000000000E+02,      /* I = 69 */
(PID.TID 0000.0001)                 2.780000000000000E+02,      /* I = 70 */
(PID.TID 0000.0001)                 2.820000000000000E+02,      /* I = 71 */
(PID.TID 0000.0001)                 2.860000000000000E+02,      /* I = 72 */
(PID.TID 0000.0001)                 2.900000000000000E+02,      /* I = 73 */
(PID.TID 0000.0001)                 2.940000000000000E+02,      /* I = 74 */
(PID.TID 0000.0001)                 2.980000000000000E+02,      /* I = 75 */
(PID.TID 0000.0001)                 3.020000000000000E+02,      /* I = 76 */
(PID.TID 0000.0001)                 3.060000000000000E+02,      /* I = 77 */
(PID.TID 0000.0001)                 3.100000000000000E+02,      /* I = 78 */
(PID.TID 0000.0001)                 3.140000000000000E+02,      /* I = 79 */
(PID.TID 0000.0001)                 3.180000000000000E+02,      /* I = 80 */
(PID.TID 0000.0001)                 3.220000000000000E+02,      /* I = 81 */
(PID.TID 0000.0001)                 3.260000000000000E+02,      /* I = 82 */
(PID.TID 0000.0001)                 3.300000000000000E+02,      /* I = 83 */
(PID.TID 0000.0001)                 3.340000000000000E+02,      /* I = 84 */
(PID.TID 0000.0001)                 3.380000000000000E+02,      /* I = 85 */
(PID.TID 0000.0001)                 3.420000000000000E+02,      /* I = 86 */
(PID.TID 0000.0001)                 3.460000000000000E+02,      /* I = 87 */
(PID.TID 0000.0001)                 3.500000000000000E+02,      /* I = 88 */
(PID.TID 0000.0001)                 3.540000000000000E+02,      /* I = 89 */
(PID.TID 0000.0001)                 3.580000000000000E+02       /* I = 90 */
(PID.TID 0000.0001)     ;
(PID.TID 0000.0001) ycoord =   /* P-point Y coord ( m - cartesian, degrees - spherical ) */
(PID.TID 0000.0001)                -7.800000000000000E+01,      /* J =  1 */
(PID.TID 0000.0001)                -7.400000000000000E+01,      /* J =  2 */
(PID.TID 0000.0001)                -7.000000000000000E+01,      /* J =  3 */
(PID.TID 0000.0001)                -6.600000000000000E+01,      /* J =  4 */
(PID.TID 0000.0001)                -6.200000000000000E+01,      /* J =  5 */
(PID.TID 0000.0001)                -5.800000000000000E+01,      /* J =  6 */
(PID.TID 0000.0001)                -5.400000000000000E+01,      /* J =  7 */
(PID.TID 0000.0001)                -5.000000000000000E+01,      /* J =  8 */
(PID.TID 0000.0001)                -4.600000000000000E+01,      /* J =  9 */
(PID.TID 0000.0001)                -4.200000000000000E+01,      /* J = 10 */
(PID.TID 0000.0001)                -3.800000000000000E+01,      /* J = 11 */
(PID.TID 0000.0001)                -3.400000000000000E+01,      /* J = 12 */
(PID.TID 0000.0001)                -3.000000000000000E+01,      /* J = 13 */
(PID.TID 0000.0001)                -2.600000000000000E+01,      /* J = 14 */
(PID.TID 0000.0001)                -2.200000000000000E+01,      /* J = 15 */
(PID.TID 0000.0001)                -1.800000000000000E+01,      /* J = 16 */
(PID.TID 0000.0001)                -1.400000000000000E+01,      /* J = 17 */
(PID.TID 0000.0001)                -1.000000000000000E+01,      /* J = 18 */
(PID.TID 0000.0001)                -6.000000000000000E+00,      /* J = 19 */
(PID.TID 0000.0001)                -2.000000000000000E+00,      /* J = 20 */
(PID.TID 0000.0001)                 2.000000000000000E+00,      /* J = 21 */
(PID.TID 0000.0001)                 6.000000000000000E+00,      /* J = 22 */
(PID.TID 0000.0001)                 1.000000000000000E+01,      /* J = 23 */
(PID.TID 0000.0001)                 1.400000000000000E+01,      /* J = 24 */
(PID.TID 0000.0001)                 1.800000000000000E+01,      /* J = 25 */
(PID.TID 0000.0001)                 2.200000000000000E+01,      /* J = 26 */
(PID.TID 0000.0001)                 2.600000000000000E+01,      /* J = 27 */
(PID.TID 0000.0001)                 3.000000000000000E+01,      /* J = 28 */
(PID.TID 0000.0001)                 3.400000000000000E+01,      /* J = 29 */
(PID.TID 0000.0001)                 3.800000000000000E+01,      /* J = 30 */
(PID.TID 0000.0001)                 4.200000000000000E+01,      /* J = 31 */
(PID.TID 0000.0001)                 4.600000000000000E+01,      /* J = 32 */
(PID.TID 0000.0001)                 5.000000000000000E+01,      /* J = 33 */
(PID.TID 0000.0001)                 5.400000000000000E+01,      /* J = 34 */
(PID.TID 0000.0001)                 5.800000000000000E+01,      /* J = 35 */
(PID.TID 0000.0001)                 6.200000000000000E+01,      /* J = 36 */
(PID.TID 0000.0001)                 6.600000000000000E+01,      /* J = 37 */
(PID.TID 0000.0001)                 7.000000000000000E+01,      /* J = 38 */
(PID.TID 0000.0001)                 7.400000000000000E+01,      /* J = 39 */
(PID.TID 0000.0001)                 7.800000000000000E+01       /* J = 40 */
(PID.TID 0000.0001)     ;
(PID.TID 0000.0001) rcoord =   /* P-point R coordinate (  units of r ) */
(PID.TID 0000.0001)                 4.947147220607350E+07,      /* K =  1 */
(PID.TID 0000.0001)                 4.263454762566800E+07,      /* K =  2 */
(PID.TID 0000.0001)                 3.632843840014850E+07,      /* K =  3 */
(PID.TID 0000.0001)                 3.054938506199550E+07,      /* K =  4 */
(PID.TID 0000.0001)                 2.529386571176200E+07,      /* K =  5 */
(PID.TID 0000.0001)                 2.055861297691200E+07,      /* K =  6 */
(PID.TID 0000.0001)                 1.634062963636650E+07,      /* K =  7 */
(PID.TID 0000.0001)                 1.263720285714050E+07,      /* K =  8 */
(PID.TID 0000.0001)                 9.445916997983005E+06,      /* K =  9 */
(PID.TID 0000.0001)                 6.764664942628005E+06,      /* K = 10 */
(PID.TID 0000.0001)                 4.591657932111004E+06,      /* K = 11 */
(PID.TID 0000.0001)                 2.925433871632004E+06,      /* K = 12 */
(PID.TID 0000.0001)                 1.714432094064004E+06,      /* K = 13 */
(PID.TID 0000.0001)                 8.570492062405043E+05,      /* K = 14 */
(PID.TID 0000.0001)                 2.520448467505043E+05       /* K = 15 */
(PID.TID 0000.0001)     ;
(PID.TID 0000.0001) rF =   /* W-Interf. R coordinate (  units of r ) */
(PID.TID 0000.0001)                 5.302312256608400E+07,      /* K =  1 */
(PID.TID 0000.0001)                 4.591982184606300E+07,      /* K =  2 */
(PID.TID 0000.0001)                 3.934927340527300E+07,      /* K =  3 */
(PID.TID 0000.0001)                 3.330760339502400E+07,      /* K =  4 */
(PID.TID 0000.0001)                 2.779116672896700E+07,      /* K =  5 */
(PID.TID 0000.0001)                 2.279656469455700E+07,      /* K =  6 */
(PID.TID 0000.0001)                 1.832066125926699E+07,      /* K =  7 */
(PID.TID 0000.0001)                 1.436059801346599E+07,      /* K =  8 */
(PID.TID 0000.0001)                 1.091380770081500E+07,      /* K =  9 */
[...]
(PID.TID 0000.0001) %MON dynstat_theta_mean           =   3.6039358448377E+00
(PID.TID 0000.0001) %MON dynstat_theta_sd             =   4.4038589265704E+00
(PID.TID 0000.0001) %MON dynstat_theta_del2           =   1.4350319132516E-01
(PID.TID 0000.0001) %MON dynstat_salt_max             =   3.7433867092847E+01
(PID.TID 0000.0001) %MON dynstat_salt_min             =   2.9766010524143E+01
(PID.TID 0000.0001) %MON dynstat_salt_mean            =   3.4718000829492E+01
(PID.TID 0000.0001) %MON dynstat_salt_sd              =   2.9441390429801E-01
(PID.TID 0000.0001) %MON dynstat_salt_del2            =   2.6708400585487E-02
(PID.TID 0000.0001) %MON advcfl_uvel_max              =   1.2370205294567E-01
(PID.TID 0000.0001) %MON advcfl_vvel_max              =   4.8657949974176E-02
(PID.TID 0000.0001) %MON advcfl_wvel_max              =   9.8319616149963E-02
(PID.TID 0000.0001) %MON advcfl_W_hf_max              =   9.8319616149963E-02
(PID.TID 0000.0001) %MON pe_b_mean                    =  -7.7318655821150E-03
(PID.TID 0000.0001) %MON ke_max                       =   1.8840518493232E-02
(PID.TID 0000.0001) %MON ke_mean                      =   1.4789028421573E-04
(PID.TID 0000.0001) %MON ke_vol                       =   1.3442141716555E+22
(PID.TID 0000.0001) %MON vort_r_min                   =  -5.3031880555429E-07
(PID.TID 0000.0001) %MON vort_r_max                   =   5.6701062453699E-07
(PID.TID 0000.0001) %MON vort_a_mean                  =  -2.4531015571414E-05
(PID.TID 0000.0001) %MON vort_a_sd                    =   7.3436104415800E-05
(PID.TID 0000.0001) %MON vort_p_mean                  =  -2.9400602137692E-05
(PID.TID 0000.0001) %MON vort_p_sd                    =   1.0337650151501E-04
(PID.TID 0000.0001) %MON surfExpan_theta_mean         =  -1.3058199306299E-05
(PID.TID 0000.0001) %MON surfExpan_salt_mean          =   8.5133065497611E-05
(PID.TID 0000.0001) // =======================================================
(PID.TID 0000.0001) // End MONITOR dynamic field statistics
(PID.TID 0000.0001) // =======================================================
time,SST,SSS,fu,fv,Q,E-P,i0,i1,a,b =   3.1104E+06 -1.3462E-01  0.0000E+00 -2.0088E-02 -2.8201E-02  1.4061E+02 -2.0964E-09     1     2  7.3333E-01  2.6667E-01
time,fu0,fu1,fu =   3.1104E+06 -3.5633E-02 -1.4435E-02 -2.0088E-02  7.3333E-01  2.6667E-01
 cg2d: Sum(rhs),rhsMax =   3.46944695195361E-16  1.72986107073134E+02
(PID.TID 0000.0001)                    cg2d_init_res =    2.18102823047957E-03
(PID.TID 0000.0001)                       cg2d_iters =    99
(PID.TID 0000.0001)                         cg2d_res =    9.77785822731959E-10
(PID.TID 0000.0001) // =======================================================
(PID.TID 0000.0001) // Begin MONITOR dynamic field statistics
(PID.TID 0000.0001) // =======================================================
(PID.TID 0000.0001) %MON time_tsnumber                =                    19
(PID.TID 0000.0001) %MON time_secondsf                =   3.2832000000000E+06
(PID.TID 0000.0001) %MON dynstat_eta_max              =   4.8224387211599E+04
(PID.TID 0000.0001) %MON dynstat_eta_min              =  -9.2712798609957E+04
(PID.TID 0000.0001) %MON dynstat_eta_mean             =   4.8408912093969E-12
(PID.TID 0000.0001) %MON dynstat_eta_sd               =   3.9703080459928E+04
(PID.TID 0000.0001) %MON dynstat_eta_del2             =   2.3966250529997E+04
(PID.TID 0000.0001) %MON dynstat_uvel_max             =   2.0110488569574E-01
(PID.TID 0000.0001) %MON dynstat_uvel_min             =  -9.8447664122009E-02
(PID.TID 0000.0001) %MON dynstat_uvel_mean            =   5.6927869294618E-04
(PID.TID 0000.0001) %MON dynstat_uvel_sd              =   1.5524672098189E-02
(PID.TID 0000.0001) %MON dynstat_uvel_del2            =   3.1434729665528E-03
(PID.TID 0000.0001) %MON dynstat_vvel_max             =   9.6880621904775E-02
(PID.TID 0000.0001) %MON dynstat_vvel_min             =  -1.1986189030516E-01
(PID.TID 0000.0001) %MON dynstat_vvel_mean            =  -6.3709229706440E-05
(PID.TID 0000.0001) %MON dynstat_vvel_sd              =   1.0056186911631E-02
(PID.TID 0000.0001) %MON dynstat_vvel_del2            =   3.0513816214455E-03
(PID.TID 0000.0001) %MON dynstat_wvel_max             =   3.0106680272839E+00
(PID.TID 0000.0001) %MON dynstat_wvel_min             =  -1.7726738960496E+00
(PID.TID 0000.0001) %MON dynstat_wvel_mean            =  -3.4991362833080E-05
(PID.TID 0000.0001) %MON dynstat_wvel_sd              =   2.0415220989606E-01
(PID.TID 0000.0001) %MON dynstat_wvel_del2            =   8.8715894865212E-02
(PID.TID 0000.0001) %MON dynstat_theta_max            =   2.9979731581979E+01
(PID.TID 0000.0001) %MON dynstat_theta_min            =  -3.2978794210508E+00
(PID.TID 0000.0001) %MON dynstat_theta_mean           =   3.6040337120742E+00
(PID.TID 0000.0001) %MON dynstat_theta_sd             =   4.4041721426791E+00
(PID.TID 0000.0001) %MON dynstat_theta_del2           =   1.4382684937041E-01
(PID.TID 0000.0001) %MON dynstat_salt_max             =   3.7434407378920E+01
(PID.TID 0000.0001) %MON dynstat_salt_min             =   2.9764561512260E+01
(PID.TID 0000.0001) %MON dynstat_salt_mean            =   3.4718000738345E+01
(PID.TID 0000.0001) %MON dynstat_salt_sd              =   2.9441595825732E-01
(PID.TID 0000.0001) %MON dynstat_salt_del2            =   2.6751195257871E-02
(PID.TID 0000.0001) %MON advcfl_uvel_max              =   1.2742110726441E-01
(PID.TID 0000.0001) %MON advcfl_vvel_max              =   4.6574485865377E-02
(PID.TID 0000.0001) %MON advcfl_wvel_max              =   9.7953098563696E-02
(PID.TID 0000.0001) %MON advcfl_W_hf_max              =   9.7953098563696E-02
(PID.TID 0000.0001) %MON pe_b_mean                    =  -7.8070785544755E-03
(PID.TID 0000.0001) %MON ke_max                       =   1.9573379193390E-02
(PID.TID 0000.0001) %MON ke_mean                      =   1.5462324650257E-04
(PID.TID 0000.0001) %MON ke_vol                       =   1.3442141716555E+22
(PID.TID 0000.0001) %MON vort_r_min                   =  -5.4491986944620E-07
(PID.TID 0000.0001) %MON vort_r_max                   =   5.7991893464006E-07
(PID.TID 0000.0001) %MON vort_a_mean                  =  -2.4531015679743E-05
(PID.TID 0000.0001) %MON vort_a_sd                    =   7.3436123403870E-05
(PID.TID 0000.0001) %MON vort_p_mean                  =  -2.9400621938252E-05
(PID.TID 0000.0001) %MON vort_p_sd                    =   1.0337655976050E-04
(PID.TID 0000.0001) %MON surfExpan_theta_mean         =  -3.6261637968506E-04
(PID.TID 0000.0001) %MON surfExpan_salt_mean          =   1.1038367310097E-04
(PID.TID 0000.0001) // =======================================================
(PID.TID 0000.0001) // End MONITOR dynamic field statistics
(PID.TID 0000.0001) // =======================================================
time,SST,SSS,fu,fv,Q,E-P,i0,i1,a,b =   3.2832E+06 -2.3399E-01  0.0000E+00 -1.8674E-02 -2.5560E-02  1.4314E+02 -2.0964E-09     1     2  8.0000E-01  2.0000E-01
time,fu0,fu1,fu =   3.2832E+06 -3.5633E-02 -1.4435E-02 -1.8674E-02  8.0000E-01  2.0000E-01
 cg2d: Sum(rhs),rhsMax =   4.16333634234434E-16  1.72981617083734E+02
(PID.TID 0000.0001)                    cg2d_init_res =    2.20680566898033E-03
(PID.TID 0000.0001)                       cg2d_iters =   102
(PID.TID 0000.0001)                         cg2d_res =    9.91151422897455E-10
(PID.TID 0000.0001) // =======================================================
(PID.TID 0000.0001) // Begin MONITOR dynamic field statistics
(PID.TID 0000.0001) // =======================================================
(PID.TID 0000.0001) %MON time_tsnumber                =                    20
(PID.TID 0000.0001) %MON time_secondsf                =   3.4560000000000E+06
(PID.TID 0000.0001) %MON dynstat_eta_max              =   4.6919005134327E+04
(PID.TID 0000.0001) %MON dynstat_eta_min              =  -9.2592394703226E+04
(PID.TID 0000.0001) %MON dynstat_eta_mean             =   6.6753018339156E-13
(PID.TID 0000.0001) %MON dynstat_eta_sd               =   3.9661648676314E+04
(PID.TID 0000.0001) %MON dynstat_eta_del2             =   2.3964945541438E+04
(PID.TID 0000.0001) %MON dynstat_uvel_max             =   2.0380492243991E-01
(PID.TID 0000.0001) %MON dynstat_uvel_min             =  -1.0119271477804E-01
(PID.TID 0000.0001) %MON dynstat_uvel_mean            =   6.5145502351062E-04
(PID.TID 0000.0001) %MON dynstat_uvel_sd              =   1.6087071614397E-02
(PID.TID 0000.0001) %MON dynstat_uvel_del2            =   3.2340693054004E-03
(PID.TID 0000.0001) %MON dynstat_vvel_max             =   9.8610241266501E-02
(PID.TID 0000.0001) %MON dynstat_vvel_min             =  -1.1322532843690E-01
(PID.TID 0000.0001) %MON dynstat_vvel_mean            =  -5.8030621849410E-05
(PID.TID 0000.0001) %MON dynstat_vvel_sd              =   9.8150653841343E-03
(PID.TID 0000.0001) %MON dynstat_vvel_del2            =   3.0584558741025E-03
(PID.TID 0000.0001) %MON dynstat_wvel_max             =   3.0682364064730E+00
(PID.TID 0000.0001) %MON dynstat_wvel_min             =  -1.8897157038649E+00
(PID.TID 0000.0001) %MON dynstat_wvel_mean            =  -6.2928645152258E-05
(PID.TID 0000.0001) %MON dynstat_wvel_sd              =   1.9981011343881E-01
(PID.TID 0000.0001) %MON dynstat_wvel_del2            =   8.8540856725211E-02
(PID.TID 0000.0001) %MON dynstat_theta_max            =   2.9967149828674E+01
(PID.TID 0000.0001) %MON dynstat_theta_min            =  -3.3192712226251E+00
(PID.TID 0000.0001) %MON dynstat_theta_mean           =   3.6041327875064E+00
(PID.TID 0000.0001) %MON dynstat_theta_sd             =   4.4045043961971E+00
(PID.TID 0000.0001) %MON dynstat_theta_del2           =   1.4394224940907E-01
(PID.TID 0000.0001) %MON dynstat_salt_max             =   3.7435274147510E+01
(PID.TID 0000.0001) %MON dynstat_salt_min             =   2.9762948626642E+01
(PID.TID 0000.0001) %MON dynstat_salt_mean            =   3.4718000671543E+01
(PID.TID 0000.0001) %MON dynstat_salt_sd              =   2.9441587652996E-01
(PID.TID 0000.0001) %MON dynstat_salt_del2            =   2.6780454886271E-02
(PID.TID 0000.0001) %MON advcfl_uvel_max              =   1.2984289293324E-01
(PID.TID 0000.0001) %MON advcfl_vvel_max              =   4.3995730798685E-02
(PID.TID 0000.0001) %MON advcfl_wvel_max              =   9.7216025010917E-02
(PID.TID 0000.0001) %MON advcfl_W_hf_max              =   9.7216025010917E-02
(PID.TID 0000.0001) %MON pe_b_mean                    =  -7.9131751321454E-03
(PID.TID 0000.0001) %MON ke_max                       =   2.0295634603589E-02
(PID.TID 0000.0001) %MON ke_mean                      =   1.6057159230222E-04
(PID.TID 0000.0001) %MON ke_vol                       =   1.3442141716555E+22
(PID.TID 0000.0001) %MON vort_r_min                   =  -5.5421656598111E-07
(PID.TID 0000.0001) %MON vort_r_max                   =   5.8935153218987E-07
(PID.TID 0000.0001) %MON vort_a_mean                  =  -2.4531015741705E-05
(PID.TID 0000.0001) %MON vort_a_sd                    =   7.3436137405297E-05
(PID.TID 0000.0001) %MON vort_p_mean                  =  -2.9400628701735E-05
(PID.TID 0000.0001) %MON vort_p_sd                    =   1.0337644867767E-04
(PID.TID 0000.0001) %MON surfExpan_theta_mean         =  -4.5391083161589E-04
(PID.TID 0000.0001) %MON surfExpan_salt_mean          =   1.2287948337789E-04
(PID.TID 0000.0001) // =======================================================
(PID.TID 0000.0001) // End MONITOR dynamic field statistics
(PID.TID 0000.0001) // =======================================================
(PID.TID 0000.0001) %CHECKPOINT        20 ckptA
(PID.TID 0000.0001)   Seconds in section "ALL                    [THE_MODEL_MAIN]":
(PID.TID 0000.0001)           User time:  5.53999996
(PID.TID 0000.0001)         System time:  0.140000001
(PID.TID 0000.0001)     Wall clock time:  6.80538905
(PID.TID 0000.0001)          No. starts: 1
(PID.TID 0000.0001)           No. stops: 1
(PID.TID 0000.0001)   Seconds in section "INITIALISE_FIXED       [THE_MODEL_MAIN]":
(PID.TID 0000.0001)           User time:  0.119999997
(PID.TID 0000.0001)         System time:  0.0299999993
(PID.TID 0000.0001)     Wall clock time:  0.441102028
(PID.TID 0000.0001)          No. starts: 1
(PID.TID 0000.0001)           No. stops: 1
(PID.TID 0000.0001)   Seconds in section "THE_MAIN_LOOP          [THE_MODEL_MAIN]":
(PID.TID 0000.0001)           User time:  5.32000006
(PID.TID 0000.0001)         System time:  0.0600000042
(PID.TID 0000.0001)     Wall clock time:  5.75125504
(PID.TID 0000.0001)          No. starts: 1
(PID.TID 0000.0001)           No. stops: 1
(PID.TID 0000.0001)   Seconds in section "INITIALISE_VARIA    [THE_MAIN_LOOP]":
(PID.TID 0000.0001)           User time:  0.0700000003
(PID.TID 0000.0001)         System time:  0.00999999978
(PID.TID 0000.0001)     Wall clock time:  0.208398938
(PID.TID 0000.0001)          No. starts: 1
(PID.TID 0000.0001)           No. stops: 1
(PID.TID 0000.0001)   Seconds in section "WRITE_STATE         [THE_MAIN_LOOP]":
(PID.TID 0000.0001)           User time:  0.0600000024
(PID.TID 0000.0001)         System time:  0.0199999996
(PID.TID 0000.0001)     Wall clock time:  0.143372059
(PID.TID 0000.0001)          No. starts: 1
(PID.TID 0000.0001)           No. stops: 1
(PID.TID 0000.0001)   Seconds in section "MONITOR             [THE_MAIN_LOOP]":
(PID.TID 0000.0001)           User time:  0.0399999917
(PID.TID 0000.0001)         System time:  0.
(PID.TID 0000.0001)     Wall clock time:  0.0332410336
(PID.TID 0000.0001)          No. starts: 1
(PID.TID 0000.0001)           No. stops: 1
(PID.TID 0000.0001)   Seconds in section "MAIN LOOP           [THE_MAIN_LOOP]":
(PID.TID 0000.0001)           User time:  5.15000007
(PID.TID 0000.0001)         System time:  0.0300000049
(PID.TID 0000.0001)     Wall clock time:  5.36613607
(PID.TID 0000.0001)          No. starts: 1
(PID.TID 0000.0001)           No. stops: 1
(PID.TID 0000.0001)   Seconds in section "FORWARD_STEP        [THE_MAIN_LOOP]":
(PID.TID 0000.0001)           User time:  5.15000007
(PID.TID 0000.0001)         System time:  0.0300000049
(PID.TID 0000.0001)     Wall clock time:  5.36571491
(PID.TID 0000.0001)          No. starts: 20
(PID.TID 0000.0001)           No. stops: 20
(PID.TID 0000.0001)   Seconds in section "UPDATE_ETAH        [FORWARD_STEP]":
(PID.TID 0000.0001)           User time:  0.
(PID.TID 0000.0001)         System time:  0.
(PID.TID 0000.0001)     Wall clock time:  0.000852704048
(PID.TID 0000.0001)          No. starts: 20
(PID.TID 0000.0001)           No. stops: 20
(PID.TID 0000.0001)   Seconds in section "CALC_SURF_DR      [FORWARD_STEP]":
(PID.TID 0000.0001)           User time:  0.
(PID.TID 0000.0001)         System time:  0.
(PID.TID 0000.0001)     Wall clock time:  0.0193477869
(PID.TID 0000.0001)          No. starts: 20
(PID.TID 0000.0001)           No. stops: 20
(PID.TID 0000.0001)   Seconds in section "EXTERNAL_FIELDS_LOAD[FORWARD_STEP]":
(PID.TID 0000.0001)           User time:  0.0300000012
(PID.TID 0000.0001)         System time:  0.
(PID.TID 0000.0001)     Wall clock time:  0.0795494318
(PID.TID 0000.0001)          No. starts: 20
(PID.TID 0000.0001)           No. stops: 20
(PID.TID 0000.0001)   Seconds in section "THERMODYNAMICS      [FORWARD_STEP]":
(PID.TID 0000.0001)           User time:  1.67999956
(PID.TID 0000.0001)         System time:  0.0100000016
(PID.TID 0000.0001)     Wall clock time:  1.69941473
(PID.TID 0000.0001)          No. starts: 20
(PID.TID 0000.0001)           No. stops: 20
(PID.TID 0000.0001)   Seconds in section "BLOCKING_EXCHANGES  [FORWARD_STEP]":
(PID.TID 0000.0001)           User time:  0.00999999046
(PID.TID 0000.0001)         System time:  0.
(PID.TID 0000.0001)     Wall clock time:  0.0186191797
(PID.TID 0000.0001)          No. starts: 40
(PID.TID 0000.0001)           No. stops: 40
(PID.TID 0000.0001)   Seconds in section "DYNAMICS            [FORWARD_STEP]":
(PID.TID 0000.0001)           User time:  1.67000037
(PID.TID 0000.0001)         System time:  0.
(PID.TID 0000.0001)     Wall clock time:  1.65550685
(PID.TID 0000.0001)          No. starts: 20
(PID.TID 0000.0001)           No. stops: 20
(PID.TID 0000.0001)   Seconds in section "UPDATE_SURF_DR     [FORWARD_STEP]":
(PID.TID 0000.0001)           User time:  0.0199997425
(PID.TID 0000.0001)         System time:  0.
(PID.TID 0000.0001)     Wall clock time:  0.0111970901
(PID.TID 0000.0001)          No. starts: 20
(PID.TID 0000.0001)           No. stops: 20
(PID.TID 0000.0001)   Seconds in section "UPDATE_CG2D        [FORWARD_STEP]":
(PID.TID 0000.0001)           User time:  0.00999999046
(PID.TID 0000.0001)         System time:  0.
(PID.TID 0000.0001)     Wall clock time:  0.0276089907
(PID.TID 0000.0001)          No. starts: 20
(PID.TID 0000.0001)           No. stops: 20
(PID.TID 0000.0001)   Seconds in section "SOLVE_FOR_PRESSURE  [FORWARD_STEP]":
(PID.TID 0000.0001)           User time:  0.709999889
(PID.TID 0000.0001)         System time:  0.
(PID.TID 0000.0001)     Wall clock time:  0.700803399
(PID.TID 0000.0001)          No. starts: 20
(PID.TID 0000.0001)           No. stops: 20
(PID.TID 0000.0001)   Seconds in section "THE_CORRECTION_STEP [FORWARD_STEP]":
(PID.TID 0000.0001)           User time:  0.279999673
(PID.TID 0000.0001)         System time:  0.
(PID.TID 0000.0001)     Wall clock time:  0.296898007
(PID.TID 0000.0001)          No. starts: 20
(PID.TID 0000.0001)           No. stops: 20
(PID.TID 0000.0001)   Seconds in section "MONITOR             [FORWARD_STEP]":
(PID.TID 0000.0001)           User time:  0.710000634
(PID.TID 0000.0001)         System time:  0.
(PID.TID 0000.0001)     Wall clock time:  0.668090105
(PID.TID 0000.0001)          No. starts: 20
(PID.TID 0000.0001)           No. stops: 20
(PID.TID 0000.0001)   Seconds in section "DO_THE_MODEL_IO     [FORWARD_STEP]":
(PID.TID 0000.0001)           User time:  0.0300002098
(PID.TID 0000.0001)         System time:  0.0200000033
(PID.TID 0000.0001)     Wall clock time:  0.181225061
(PID.TID 0000.0001)          No. starts: 20
(PID.TID 0000.0001)           No. stops: 20
(PID.TID 0000.0001)   Seconds in section "WRITE_CHECKPOINT    [FORWARD_STEP]":
(PID.TID 0000.0001)           User time:  0.
(PID.TID 0000.0001)         System time:  0.
(PID.TID 0000.0001)     Wall clock time:  0.000404953957
(PID.TID 0000.0001)          No. starts: 20
(PID.TID 0000.0001)           No. stops: 20
(PID.TID 0000.0001)   Seconds in section "WRITE_CHECKPOINT       [THE_MODEL_MAIN]":
(PID.TID 0000.0001)           User time:  0.0999999046
(PID.TID 0000.0001)         System time:  0.049999997
(PID.TID 0000.0001)     Wall clock time:  0.612931967
(PID.TID 0000.0001)          No. starts: 1
(PID.TID 0000.0001)           No. stops: 1
(PID.TID 0000.0001) // ======================================================
(PID.TID 0000.0001) // Tile <-> Tile communication statistics
(PID.TID 0000.0001) // ======================================================
(PID.TID 0000.0001) // o Tile number: 000001
(PID.TID 0000.0001) //         No. X exchanges =              0
(PID.TID 0000.0001) //            Max. X spins =              0
(PID.TID 0000.0001) //            Min. X spins =     1000000000
(PID.TID 0000.0001) //          Total. X spins =              0
(PID.TID 0000.0001) //            Avg. X spins =       0.00E+00
(PID.TID 0000.0001) //         No. Y exchanges =              0
(PID.TID 0000.0001) //            Max. Y spins =              0
(PID.TID 0000.0001) //            Min. Y spins =     1000000000
(PID.TID 0000.0001) //          Total. Y spins =              0
(PID.TID 0000.0001) //            Avg. Y spins =       0.00E+00
(PID.TID 0000.0001) // o Thread number: 000001
(PID.TID 0000.0001) //            No. barriers =          33758
(PID.TID 0000.0001) //      Max. barrier spins =              1
(PID.TID 0000.0001) //      Min. barrier spins =              1
(PID.TID 0000.0001) //     Total barrier spins =          33758
(PID.TID 0000.0001) //      Avg. barrier spins =       1.00E+00
