(PID.TID 0000.0001) 
(PID.TID 0000.0001) // ======================================================
(PID.TID 0000.0001) //                      MITgcm UV
(PID.TID 0000.0001) //                      =========
(PID.TID 0000.0001) // ======================================================
(PID.TID 0000.0001) // execution environment starting up...
(PID.TID 0000.0001) 
(PID.TID 0000.0001) // MITgcmUV version:  checkpoint68w
(PID.TID 0000.0001) // Build user:        jmc
(PID.TID 0000.0001) // Build host:        jaures.mit.edu
(PID.TID 0000.0001) // Build date:        Sun Apr 28 11:52:23 PM EDT 2024
(PID.TID 0000.0001) 
(PID.TID 0000.0001) // =======================================================
(PID.TID 0000.0001) // Execution Environment parameter file "eedata"
(PID.TID 0000.0001) // =======================================================
(PID.TID 0000.0001) ># Example "eedata" file
(PID.TID 0000.0001) ># Lines beginning "#" are comments
(PID.TID 0000.0001) ># nTx - No. threads per process in X
(PID.TID 0000.0001) ># nTy - No. threads per process in Y
(PID.TID 0000.0001) > &EEPARMS
(PID.TID 0000.0001) > nTx=1,
(PID.TID 0000.0001) > nTy=1,
(PID.TID 0000.0001) > /
(PID.TID 0000.0001) ># Note: Some systems use & as the
(PID.TID 0000.0001) ># namelist terminator. Other systems
(PID.TID 0000.0001) ># use a / character (as shown here).
(PID.TID 0000.0001) 
(PID.TID 0000.0001) // =======================================================
(PID.TID 0000.0001) // Computational Grid Specification ( see files "SIZE.h" )
(PID.TID 0000.0001) //                                  ( and "eedata"       )
(PID.TID 0000.0001) // =======================================================
(PID.TID 0000.0001)      nPx =    1 ; /* No. processes in X */
(PID.TID 0000.0001)      nPy =    1 ; /* No. processes in Y */
(PID.TID 0000.0001)      nSx =    2 ; /* No. tiles in X per process */
(PID.TID 0000.0001)      nSy =    2 ; /* No. tiles in Y per process */
(PID.TID 0000.0001)      sNx =   45 ; /* Tile size in X */
(PID.TID 0000.0001)      sNy =   20 ; /* Tile size in Y */
(PID.TID 0000.0001)      OLx =    2 ; /* Tile overlap distance in X */
(PID.TID 0000.0001)      OLy =    2 ; /* Tile overlap distance in Y */
(PID.TID 0000.0001)      nTx =    1 ; /* No. threads in X per process */
(PID.TID 0000.0001)      nTy =    1 ; /* No. threads in Y per process */
(PID.TID 0000.0001)       Nr =   15 ; /* No. levels in the vertical   */
(PID.TID 0000.0001)       Nx =   90 ; /* Total domain size in X ( = nPx*nSx*sNx ) */
(PID.TID 0000.0001)       Ny =   40 ; /* Total domain size in Y ( = nPy*nSy*sNy ) */
(PID.TID 0000.0001)   nTiles =    4 ; /* Total no. tiles per process ( = nSx*nSy ) */
(PID.TID 0000.0001)   nProcs =    1 ; /* Total no. processes ( = nPx*nPy ) */
(PID.TID 0000.0001) nThreads =    1 ; /* Total no. threads per process ( = nTx*nTy ) */
(PID.TID 0000.0001) usingMPI =    F ; /* Flag used to control whether MPI is in use */
(PID.TID 0000.0001)                   /*  note: To execute a program with MPI calls */
(PID.TID 0000.0001)                   /*  it must be launched appropriately e.g     */
(PID.TID 0000.0001)                   /*  "mpirun -np 64 ......"                    */
(PID.TID 0000.0001) useCoupler=   F ; /* Flag used to control communications with   */
(PID.TID 0000.0001)                   /*  other model components, through a coupler */
(PID.TID 0000.0001) useNest2W_parent =    F ;/* Control 2-W Nesting comm */
(PID.TID 0000.0001) useNest2W_child  =    F ;/* Control 2-W Nesting comm */
(PID.TID 0000.0001) debugMode =    F ; /* print debug msg. (sequence of S/R calls)  */
(PID.TID 0000.0001) printMapIncludesZeros=    F ; /* print zeros in Std.Output maps */
(PID.TID 0000.0001) maxLengthPrt1D=   65 /* maxLength of 1D array printed to StdOut */
(PID.TID 0000.0001) 
(PID.TID 0000.0001) // ======================================================
(PID.TID 0000.0001) // Mapping of tiles to threads
(PID.TID 0000.0001) // ======================================================
(PID.TID 0000.0001) // -o- Thread   1, tiles (   1:   2,   1:   2)
(PID.TID 0000.0001) 
(PID.TID 0000.0001) // ======================================================
(PID.TID 0000.0001) // Tile <-> Tile connectvity table
(PID.TID 0000.0001) // ======================================================
(PID.TID 0000.0001) // Tile number: 000001 (process no. = 000000)
(PID.TID 0000.0001) //        WEST: Tile = 000002, Process = 000000, Comm = put
(PID.TID 0000.0001) //                bi = 000002, bj = 000001
(PID.TID 0000.0001) //        EAST: Tile = 000002, Process = 000000, Comm = put
(PID.TID 0000.0001) //                bi = 000002, bj = 000001
(PID.TID 0000.0001) //       SOUTH: Tile = 000003, Process = 000000, Comm = put
(PID.TID 0000.0001) //                bi = 000001, bj = 000002
(PID.TID 0000.0001) //       NORTH: Tile = 000003, Process = 000000, Comm = put
(PID.TID 0000.0001) //                bi = 000001, bj = 000002
(PID.TID 0000.0001) // Tile number: 000002 (process no. = 000000)
(PID.TID 0000.0001) //        WEST: Tile = 000001, Process = 000000, Comm = put
(PID.TID 0000.0001) //                bi = 000001, bj = 000001
(PID.TID 0000.0001) //        EAST: Tile = 000001, Process = 000000, Comm = put
(PID.TID 0000.0001) //                bi = 000001, bj = 000001
(PID.TID 0000.0001) //       SOUTH: Tile = 000004, Process = 000000, Comm = put
(PID.TID 0000.0001) //                bi = 000002, bj = 000002
(PID.TID 0000.0001) //       NORTH: Tile = 000004, Process = 000000, Comm = put
(PID.TID 0000.0001) //                bi = 000002, bj = 000002
(PID.TID 0000.0001) // Tile number: 000003 (process no. = 000000)
(PID.TID 0000.0001) //        WEST: Tile = 000004, Process = 000000, Comm = put
(PID.TID 0000.0001) //                bi = 000002, bj = 000002
(PID.TID 0000.0001) //        EAST: Tile = 000004, Process = 000000, Comm = put
(PID.TID 0000.0001) //                bi = 000002, bj = 000002
(PID.TID 0000.0001) //       SOUTH: Tile = 000001, Process = 000000, Comm = put
(PID.TID 0000.0001) //                bi = 000001, bj = 000001
(PID.TID 0000.0001) //       NORTH: Tile = 000001, Process = 000000, Comm = put
(PID.TID 0000.0001) //                bi = 000001, bj = 000001
(PID.TID 0000.0001) // Tile number: 000004 (process no. = 000000)
(PID.TID 0000.0001) //        WEST: Tile = 000003, Process = 000000, Comm = put
(PID.TID 0000.0001) //                bi = 000001, bj = 000002
(PID.TID 0000.0001) //        EAST: Tile = 000003, Process = 000000, Comm = put
(PID.TID 0000.0001) //                bi = 000001, bj = 000002
(PID.TID 0000.0001) //       SOUTH: Tile = 000002, Process = 000000, Comm = put
(PID.TID 0000.0001) //                bi = 000002, bj = 000001
(PID.TID 0000.0001) //       NORTH: Tile = 000002, Process = 000000, Comm = put
(PID.TID 0000.0001) //                bi = 000002, bj = 000001
(PID.TID 0000.0001) 
(PID.TID 0000.0001)  INI_PARMS: opening model parameter file "data"
(PID.TID 0000.0001)  OPEN_COPY_DATA_FILE: opening file data
(PID.TID 0000.0001) // =======================================================
(PID.TID 0000.0001) // Parameter file "data"
(PID.TID 0000.0001) // =======================================================
(PID.TID 0000.0001) ># ====================
(PID.TID 0000.0001) ># | Model parameters |
(PID.TID 0000.0001) ># ====================
(PID.TID 0000.0001) >#
(PID.TID 0000.0001) ># Continuous equation parameters
(PID.TID 0000.0001) > &PARM01
(PID.TID 0000.0001) > tRef = 15*20.,
(PID.TID 0000.0001) > sRef = 15*35.,
(PID.TID 0000.0001) > viscAr=1.E-3,
(PID.TID 0000.0001) > viscAh=5.E5,
(PID.TID 0000.0001) > diffKhT=0.0,
(PID.TID 0000.0001) > diffKrT=3.E-5,
(PID.TID 0000.0001) > diffKhS=0.0,
(PID.TID 0000.0001) > diffKrS=3.E-5,
(PID.TID 0000.0001) > rhonil=1035.,
(PID.TID 0000.0001) > rotationPeriod=86400.,
(PID.TID 0000.0001) > gravity=9.81,
(PID.TID 0000.0001) > eosType = 'JMD95Z',
(PID.TID 0000.0001) > ivdc_kappa=100.,
(PID.TID 0000.0001) > implicitDiffusion=.TRUE.,
(PID.TID 0000.0001) > allowFreezing=.TRUE.,
(PID.TID 0000.0001) > useRealFreshWaterFlux=.TRUE.,
(PID.TID 0000.0001) > useCDscheme=.TRUE.,
(PID.TID 0000.0001) > useNHMTerms=.TRUE.,
(PID.TID 0000.0001) ># turn on looped cells
(PID.TID 0000.0001) > hFacMin=.05,
(PID.TID 0000.0001) > hFacMindr=50.,
(PID.TID 0000.0001) ># set precision of data files
(PID.TID 0000.0001) > readBinaryPrec=32,
(PID.TID 0000.0001) >#- not safe to use globalFiles in multi-processors runs
(PID.TID 0000.0001) >#globalfiles=.TRUE.
(PID.TID 0000.0001) >## usesinglecpuio=.TRUE.
(PID.TID 0000.0001) > /
(PID.TID 0000.0001) >
(PID.TID 0000.0001) ># Elliptic solver parameters
(PID.TID 0000.0001) > &PARM02
(PID.TID 0000.0001) > cg2dMaxIters=500,
(PID.TID 0000.0001) > cg2dTargetResidual=1.E-13,
(PID.TID 0000.0001) > /
(PID.TID 0000.0001) >
(PID.TID 0000.0001) ># Time stepping parameters
(PID.TID 0000.0001) > &PARM03
(PID.TID 0000.0001) > nIter0 =     0,
(PID.TID 0000.0001) > nTimeSteps= 20,
(PID.TID 0000.0001) >#- 100 years of integration will yield a reasonable flow field
(PID.TID 0000.0001) ># endTime  = 3110400000.,
(PID.TID 0000.0001) > deltaTmom = 1200.,
(PID.TID 0000.0001) > tauCD =     321428.,
(PID.TID 0000.0001) > deltaTtracer= 43200.,
(PID.TID 0000.0001) > deltaTClock = 43200.,
(PID.TID 0000.0001) > abEps = 0.1,
(PID.TID 0000.0001) > pChkptFreq= 311040000.,
(PID.TID 0000.0001) > dumpFreq =  311040000.,
(PID.TID 0000.0001) > monitorSelect= 2,
(PID.TID 0000.0001) > monitorFreq =  432000.,
(PID.TID 0000.0001) > adjMonitorFreq=259200.,
(PID.TID 0000.0001) > /
(PID.TID 0000.0001) >
(PID.TID 0000.0001) ># Gridding parameters
(PID.TID 0000.0001) > &PARM04
(PID.TID 0000.0001) > usingSphericalPolarGrid=.TRUE.,
(PID.TID 0000.0001) > delR= 50., 70., 100., 140., 190.,
(PID.TID 0000.0001) >       240., 290., 340., 390., 440.,
(PID.TID 0000.0001) >       490., 540., 590., 640., 690.,
(PID.TID 0000.0001) > ygOrigin=-80.,
(PID.TID 0000.0001) > dySpacing=4.,
(PID.TID 0000.0001) > dxSpacing=4.,
(PID.TID 0000.0001) > /
(PID.TID 0000.0001) >
(PID.TID 0000.0001) ># Input datasets
(PID.TID 0000.0001) > &PARM05
(PID.TID 0000.0001) > bathyFile=      'bathymetry.bin',
(PID.TID 0000.0001) > hydrogThetaFile='lev_t.bin',
(PID.TID 0000.0001) > hydrogSaltFile= 'lev_s.bin',
(PID.TID 0000.0001) > /
(PID.TID 0000.0001) 
(PID.TID 0000.0001)  INI_PARMS ; starts to read PARM01
(PID.TID 0000.0001)  INI_PARMS ; read PARM01 : OK
(PID.TID 0000.0001) S/R INI_PARMS: No request for barotropic solver
(PID.TID 0000.0001) S/R INI_PARMS: => Use implicitFreeSurface as default
(PID.TID 0000.0001)  INI_PARMS ; starts to read PARM02
(PID.TID 0000.0001)  INI_PARMS ; read PARM02 : OK
(PID.TID 0000.0001)  INI_PARMS ; starts to read PARM03
(PID.TID 0000.0001)  INI_PARMS ; read PARM03 : OK
(PID.TID 0000.0001)  INI_PARMS ; starts to read PARM04
(PID.TID 0000.0001)  INI_PARMS ; read PARM04 : OK
(PID.TID 0000.0001)  INI_PARMS ; starts to read PARM05
(PID.TID 0000.0001)  INI_PARMS ; read PARM05 : OK
(PID.TID 0000.0001)  INI_PARMS: finished reading file "data"
(PID.TID 0000.0001)  PACKAGES_BOOT: opening data.pkg
(PID.TID 0000.0001)  OPEN_COPY_DATA_FILE: opening file data.pkg
(PID.TID 0000.0001) // =======================================================
(PID.TID 0000.0001) // Parameter file "data.pkg"
(PID.TID 0000.0001) // =======================================================
(PID.TID 0000.0001) ># Packages
(PID.TID 0000.0001) > &PACKAGES
(PID.TID 0000.0001) >  useEXF         = .TRUE.,
(PID.TID 0000.0001) >  useCAL         = .TRUE.,
(PID.TID 0000.0001) >  useGMRedi      = .TRUE.,
(PID.TID 0000.0001) >  useGrdchk      = .TRUE.,
(PID.TID 0000.0001) ># useDiagnostics = .TRUE.,
(PID.TID 0000.0001) > /
(PID.TID 0000.0001) 
(PID.TID 0000.0001)  PACKAGES_BOOT: finished reading data.pkg
(PID.TID 0000.0001)  PACKAGES_BOOT: On/Off package Summary
 --------  pkgs with a standard "usePKG" On/Off switch in "data.pkg":  --------
 pkg/gmredi               compiled   and   used ( useGMRedi                = T )
 pkg/cal                  compiled   and   used ( useCAL                   = T )
 pkg/exf                  compiled   and   used ( useEXF                   = T )
 pkg/autodiff             compiled   and   used ( useAUTODIFF              = T )
 pkg/grdchk               compiled   and   used ( useGrdchk                = T )
 pkg/ctrl                 compiled   and   used ( useCTRL                  = T )
 -------- pkgs without standard "usePKG" On/Off switch in "data.pkg":  --------
 pkg/generic_advdiff      compiled   and   used ( useGAD                   = T )
 pkg/mom_common           compiled   and   used ( momStepping              = T )
 pkg/mom_vecinv           compiled but not used ( +vectorInvariantMomentum = F )
 pkg/mom_fluxform         compiled   and   used ( & not vectorInvariantMom = T )
 pkg/cd_code              compiled   and   used ( useCDscheme              = T )
 pkg/monitor              compiled   and   used ( monitorFreq > 0.         = T )
 pkg/debug                compiled but not used ( debugMode                = F )
 pkg/rw                   compiled   and   used
 pkg/mdsio                compiled   and   used
 pkg/autodiff             compiled   and   used
 pkg/cost                 compiled   and   used
(PID.TID 0000.0001)  PACKAGES_BOOT: End of package Summary
(PID.TID 0000.0001) 
(PID.TID 0000.0001) CAL_READPARMS: opening data.cal
(PID.TID 0000.0001)  OPEN_COPY_DATA_FILE: opening file data.cal
(PID.TID 0000.0001) // =======================================================
(PID.TID 0000.0001) // Parameter file "data.cal"
(PID.TID 0000.0001) // =======================================================
(PID.TID 0000.0001) >#
(PID.TID 0000.0001) ># *******************
(PID.TID 0000.0001) ># Calendar Parameters
(PID.TID 0000.0001) ># *******************
(PID.TID 0000.0001) > &CAL_NML
(PID.TID 0000.0001) > TheCalendar='gregorian',
(PID.TID 0000.0001) ># TheCalendar='model',
(PID.TID 0000.0001) > startDate_1=19920101,
(PID.TID 0000.0001) > startDate_2=000000,
(PID.TID 0000.0001) > /
(PID.TID 0000.0001) 
(PID.TID 0000.0001) CAL_READPARMS: finished reading data.cal
(PID.TID 0000.0001) EXF_READPARMS: opening data.exf
(PID.TID 0000.0001)  OPEN_COPY_DATA_FILE: opening file data.exf
(PID.TID 0000.0001) // =======================================================
(PID.TID 0000.0001) // Parameter file "data.exf"
(PID.TID 0000.0001) // =======================================================
(PID.TID 0000.0001) ># *********************
(PID.TID 0000.0001) ># External Forcing Data
(PID.TID 0000.0001) ># *********************
(PID.TID 0000.0001) > &EXF_NML_01
(PID.TID 0000.0001) > exf_iprec         = 32,
(PID.TID 0000.0001) > exf_debugLev      = 3,
(PID.TID 0000.0001) >#readStressOnAgrid = .TRUE.,
(PID.TID 0000.0001) > exf_adjMonSelect  = 3,
(PID.TID 0000.0001) > exf_adjMonFreq    = 864000.,
(PID.TID 0000.0001) > /
(PID.TID 0000.0001) >
(PID.TID 0000.0001) ># *********************
(PID.TID 0000.0001) > &EXF_NML_02
(PID.TID 0000.0001) >#hfluxstartdate1   = 19920101,
(PID.TID 0000.0001) >#hfluxstartdate2   = 000000,
(PID.TID 0000.0001) > hfluxperiod       = -12.,
(PID.TID 0000.0001) >#
(PID.TID 0000.0001) >#sfluxstartdate1   = 19920101,
(PID.TID 0000.0001) >#sfluxstartdate2   = 000000,
(PID.TID 0000.0001) > sfluxperiod       = -12.,
(PID.TID 0000.0001) >#
(PID.TID 0000.0001) >#ustressstartdate1 = 19920101,
(PID.TID 0000.0001) >#ustressstartdate2 = 000000,
(PID.TID 0000.0001) > ustressperiod     = -12.,
(PID.TID 0000.0001) >#
(PID.TID 0000.0001) >#vstressstartdate1 = 19920101,
(PID.TID 0000.0001) >#vstressstartdate2 = 000000,
(PID.TID 0000.0001) > vstressperiod     = -12.,
(PID.TID 0000.0001) >#
(PID.TID 0000.0001) >#climsststartdate1 = 19920101,
(PID.TID 0000.0001) >#climsststartdate2 = 000000,
(PID.TID 0000.0001) > climsstperiod     = -12.,
(PID.TID 0000.0001) ># 2 months restoring timescale for temperature
(PID.TID 0000.0001) > climsstTauRelax   = 5184000.,
(PID.TID 0000.0001) >#
(PID.TID 0000.0001) >#climsssstartdate1 = 19920101,
(PID.TID 0000.0001) >#climsssstartdate2 = 000000,
(PID.TID 0000.0001) > climsssperiod     = -12.,
(PID.TID 0000.0001) ># 6 months restoring timescale for salinity
(PID.TID 0000.0001) > climsssTauRelax   = 15552000.,
(PID.TID 0000.0001) >#
(PID.TID 0000.0001) > hfluxfile    = 'ncep_qnet.bin',
(PID.TID 0000.0001) >#sfluxfile    = 'ncep_emp.bin',
(PID.TID 0000.0001) > ustressfile  = 'trenberth_taux.bin',
(PID.TID 0000.0001) > vstressfile  = 'trenberth_tauy.bin',
(PID.TID 0000.0001) > climsstfile  = 'lev_sst.bin',
(PID.TID 0000.0001) > climsssfile  = 'lev_sss.bin',
(PID.TID 0000.0001) >#
(PID.TID 0000.0001) > /
(PID.TID 0000.0001) >
(PID.TID 0000.0001) ># *********************
(PID.TID 0000.0001) > &EXF_NML_03
(PID.TID 0000.0001) > /
(PID.TID 0000.0001) >
(PID.TID 0000.0001) ># *********************
(PID.TID 0000.0001) > &EXF_NML_04
(PID.TID 0000.0001) > hflux_lon0    = 2.,
(PID.TID 0000.0001) > hflux_lon_inc = 4.,
(PID.TID 0000.0001) > hflux_lat0    = -78.,
(PID.TID 0000.0001) > hflux_lat_inc = 39*4.,
(PID.TID 0000.0001) > hflux_nlon    = 90,
(PID.TID 0000.0001) > hflux_nlat    = 40,
(PID.TID 0000.0001) >#
(PID.TID 0000.0001) > sflux_lon0    = 2.,
(PID.TID 0000.0001) > sflux_lon_inc = 4.,
(PID.TID 0000.0001) > sflux_lat0    = -78.,
(PID.TID 0000.0001) > sflux_lat_inc = 39*4.,
(PID.TID 0000.0001) > sflux_nlon    = 90,
(PID.TID 0000.0001) > sflux_nlat    = 40,
(PID.TID 0000.0001) >#
(PID.TID 0000.0001) > ustress_lon0    = 2.,
(PID.TID 0000.0001) > ustress_lon_inc = 4.,
(PID.TID 0000.0001) > ustress_lat0    = -78.,
(PID.TID 0000.0001) > ustress_lat_inc = 39*4.,
(PID.TID 0000.0001) > ustress_nlon    = 90,
(PID.TID 0000.0001) > ustress_nlat    = 40,
(PID.TID 0000.0001) >#
(PID.TID 0000.0001) > vstress_lon0    = 2.,
(PID.TID 0000.0001) > vstress_lon_inc = 4.,
(PID.TID 0000.0001) > vstress_lat0    = -78.,
(PID.TID 0000.0001) > vstress_lat_inc = 39*4.,
(PID.TID 0000.0001) > vstress_nlon    = 90,
(PID.TID 0000.0001) > vstress_nlat    = 40,
(PID.TID 0000.0001) >#
(PID.TID 0000.0001) > climsst_interpMethod = 1,
(PID.TID 0000.0001) > climsst_lon0    = 2.,
(PID.TID 0000.0001) > climsst_lon_inc = 4.,
(PID.TID 0000.0001) > climsst_lat0    = -78.,
(PID.TID 0000.0001) > climsst_lat_inc = 39*4.,
(PID.TID 0000.0001) > climsst_nlon    = 90,
(PID.TID 0000.0001) > climsst_nlat    = 40,
(PID.TID 0000.0001) >#
(PID.TID 0000.0001) > climsss_interpMethod = 1,
(PID.TID 0000.0001) > climsss_lon0    = 2.,
(PID.TID 0000.0001) > climsss_lon_inc = 4.,
(PID.TID 0000.0001) > climsss_lat0    = -78.,
(PID.TID 0000.0001) > climsss_lat_inc = 39*4.,
(PID.TID 0000.0001) > climsss_nlon    = 90,
(PID.TID 0000.0001) > climsss_nlat    = 40,
(PID.TID 0000.0001) >#
(PID.TID 0000.0001) > /
(PID.TID 0000.0001) 
(PID.TID 0000.0001) EXF_READPARMS: reading EXF_NML_01
(PID.TID 0000.0001) EXF_READPARMS: reading EXF_NML_02
(PID.TID 0000.0001) EXF_READPARMS: reading EXF_NML_03
(PID.TID 0000.0001) EXF_READPARMS: reading EXF_NML_04
(PID.TID 0000.0001) EXF_READPARMS: finished reading data.exf
(PID.TID 0000.0001)  GM_READPARMS: opening data.gmredi
(PID.TID 0000.0001)  OPEN_COPY_DATA_FILE: opening file data.gmredi
(PID.TID 0000.0001) // =======================================================
(PID.TID 0000.0001) // Parameter file "data.gmredi"
(PID.TID 0000.0001) // =======================================================
(PID.TID 0000.0001) ># GM+Redi package parameters:
(PID.TID 0000.0001) >
(PID.TID 0000.0001) >#-from MOM :
(PID.TID 0000.0001) ># GM_background_K: 	G & Mc.W  diffusion coefficient
(PID.TID 0000.0001) ># GM_maxSlope    :	max slope of isopycnals
(PID.TID 0000.0001) ># GM_Scrit       :	transition for scaling diffusion coefficient
(PID.TID 0000.0001) ># GM_Sd          :	half width scaling for diffusion coefficient
(PID.TID 0000.0001) ># GM_taper_scheme:	slope clipping or one of the tapering schemes
(PID.TID 0000.0001) ># GM_Kmin_horiz  :	horizontal diffusion minimum value
(PID.TID 0000.0001) >
(PID.TID 0000.0001) >#-Option parameters (needs to "define" options in GMREDI_OPTIONS.h")
(PID.TID 0000.0001) ># GM_isopycK     :	isopycnal diffusion coefficient (default=GM_background_K)
(PID.TID 0000.0001) ># GM_AdvForm     :	turn on GM Advective form       (default=Skew flux form)
(PID.TID 0000.0001) >
(PID.TID 0000.0001) > &GM_PARM01
(PID.TID 0000.0001) >  GM_background_K    = 1.e+3,
(PID.TID 0000.0001) >  GM_taper_scheme    = 'gkw91',
(PID.TID 0000.0001) >  GM_maxSlope        = 1.e-2,
(PID.TID 0000.0001) >  GM_Kmin_horiz      = 50.,
(PID.TID 0000.0001) >  GM_Scrit           = 4.e-3,
(PID.TID 0000.0001) >  GM_Sd              = 1.e-3,
(PID.TID 0000.0001) ># GM_Visbeck_alpha   = 0.,
(PID.TID 0000.0001) ># GM_Visbeck_length  = 2.e+5,
(PID.TID 0000.0001) ># GM_Visbeck_depth   = 1.e+3,
(PID.TID 0000.0001) ># GM_Visbeck_maxval_K= 2.5e+3,
(PID.TID 0000.0001) > /
(PID.TID 0000.0001) >
(PID.TID 0000.0001) >
(PID.TID 0000.0001) 
(PID.TID 0000.0001)  GM_READPARMS: finished reading data.gmredi
(PID.TID 0000.0001) AUTODIFF_READPARMS: opening data.autodiff
(PID.TID 0000.0001)  OPEN_COPY_DATA_FILE: opening file data.autodiff
(PID.TID 0000.0001) // =======================================================
(PID.TID 0000.0001) // Parameter file "data.autodiff"
(PID.TID 0000.0001) // =======================================================
(PID.TID 0000.0001) ># =========================
(PID.TID 0000.0001) ># pkg AUTODIFF parameters :
(PID.TID 0000.0001) ># =========================
(PID.TID 0000.0001) >#  inAdExact :: get an exact adjoint (no approximation) (def=.True.)
(PID.TID 0000.0001) >#
(PID.TID 0000.0001) > &AUTODIFF_PARM01
(PID.TID 0000.0001) ># inAdExact = .FALSE.,
(PID.TID 0000.0001) ># useKPPinAdMode = .FALSE.,
(PID.TID 0000.0001) ># useGMRediInAdMode = .FALSE.,
(PID.TID 0000.0001) > /
(PID.TID 0000.0001) 
(PID.TID 0000.0001) AUTODIFF_READPARMS: finished reading data.autodiff
(PID.TID 0000.0001) // ===================================
(PID.TID 0000.0001) // AUTODIFF parameters :
(PID.TID 0000.0001) // ===================================
(PID.TID 0000.0001) inAdExact = /* get an exact adjoint (no approximation) */
(PID.TID 0000.0001)                   T
(PID.TID 0000.0001)     ;
(PID.TID 0000.0001) useApproxAdvectionInAdMode = /* approximate AD-advection */
(PID.TID 0000.0001)                   F
(PID.TID 0000.0001)     ;
(PID.TID 0000.0001) cg2dFullAdjoint = /* use full hand written cg2d adjoint (no approximation) */
(PID.TID 0000.0001)                   F
(PID.TID 0000.0001)     ;
(PID.TID 0000.0001) useKPPinAdMode = /* use KPP in adjoint mode */
(PID.TID 0000.0001)                   F
(PID.TID 0000.0001)     ;
(PID.TID 0000.0001) useGMRediInAdMode = /* use GMRedi in adjoint mode */
(PID.TID 0000.0001)                   T
(PID.TID 0000.0001)     ;
(PID.TID 0000.0001) useSEAICEinAdMode = /* use SEAICE in adjoint mode */
(PID.TID 0000.0001)                   F
(PID.TID 0000.0001)     ;
(PID.TID 0000.0001) useGGL90inAdMode = /* use GGL90 in adjoint mode */
(PID.TID 0000.0001)                   F
(PID.TID 0000.0001)     ;
(PID.TID 0000.0001) useSALT_PLUMEinAdMode = /* use SALT_PLUME in adjoint mode */
(PID.TID 0000.0001)                   F
(PID.TID 0000.0001)     ;
(PID.TID 0000.0001) dumpAdVarExch = /* control adexch before dumpinp */
(PID.TID 0000.0001)                       2
(PID.TID 0000.0001)     ;
(PID.TID 0000.0001) mon_AdVarExch = /* control adexch before monitor */
(PID.TID 0000.0001)                       2
(PID.TID 0000.0001)     ;
(PID.TID 0000.0001) viscFacInFw = /* viscosity factor for forward model */
(PID.TID 0000.0001)                 1.000000000000000E+00
(PID.TID 0000.0001)     ;
(PID.TID 0000.0001) viscFacInAd = /* viscosity factor for adjoint */
(PID.TID 0000.0001)                 1.000000000000000E+00
(PID.TID 0000.0001)     ;
(PID.TID 0000.0001) SIregFacInAd = /* sea ice factor for adjoint model */
(PID.TID 0000.0001)                 1.234567000000000E+05
(PID.TID 0000.0001)     ;
(PID.TID 0000.0001) SIregFacInFw = /* sea ice factor for forward model */
(PID.TID 0000.0001)                 1.234567000000000E+05
(PID.TID 0000.0001)     ;
(PID.TID 0000.0001) 
(PID.TID 0000.0001) OPTIM_READPARMS: opening data.optim
(PID.TID 0000.0001)  OPEN_COPY_DATA_FILE: opening file data.optim
(PID.TID 0000.0001) // =======================================================
(PID.TID 0000.0001) // Parameter file "data.optim"
(PID.TID 0000.0001) // =======================================================
(PID.TID 0000.0001) >#
(PID.TID 0000.0001) ># ********************************
(PID.TID 0000.0001) ># Off-line optimization parameters
(PID.TID 0000.0001) ># ********************************
(PID.TID 0000.0001) > &OPTIM
(PID.TID 0000.0001) > optimcycle=0,
(PID.TID 0000.0001) > /
(PID.TID 0000.0001) 
(PID.TID 0000.0001) OPTIM_READPARMS: finished reading data.optim
(PID.TID 0000.0001) CTRL_READPARMS: opening data.ctrl
(PID.TID 0000.0001)  OPEN_COPY_DATA_FILE: opening file data.ctrl
(PID.TID 0000.0001) // =======================================================
(PID.TID 0000.0001) // Parameter file "data.ctrl"
(PID.TID 0000.0001) // =======================================================
(PID.TID 0000.0001) ># *********************
(PID.TID 0000.0001) ># ECCO controlvariables
(PID.TID 0000.0001) ># *********************
(PID.TID 0000.0001) > &CTRL_NML
(PID.TID 0000.0001) ># doSinglePrecTapelev=.TRUE.,
(PID.TID 0000.0001) > /
(PID.TID 0000.0001) >#
(PID.TID 0000.0001) ># *********************
(PID.TID 0000.0001) ># names for ctrl_pack/unpack
(PID.TID 0000.0001) ># *********************
(PID.TID 0000.0001) > &CTRL_PACKNAMES
(PID.TID 0000.0001) > /
(PID.TID 0000.0001) >#
(PID.TID 0000.0001) ># *********************
(PID.TID 0000.0001) ># names for CTRL_GENARR, CTRL_GENTIM
(PID.TID 0000.0001) ># *********************
(PID.TID 0000.0001) > &CTRL_NML_GENARR
(PID.TID 0000.0001) > xx_genarr3d_file(1)       = 'xx_theta',
(PID.TID 0000.0001) > xx_genarr3d_weight(1)     = 'ones_64b.bin',
(PID.TID 0000.0001) > xx_genarr3d_bounds(1:5,1) = -2.,-1.9,39.,40.,5.,
(PID.TID 0000.0001) >#
(PID.TID 0000.0001) > xx_genarr3d_file(2)       = 'xx_salt',
(PID.TID 0000.0001) > xx_genarr3d_weight(2)     = 'ones_64b.bin',
(PID.TID 0000.0001) > xx_genarr3d_bounds(1:5,2) = 29.,29.5,40.5,41.,5.,
(PID.TID 0000.0001) >#
(PID.TID 0000.0001) > xx_gentim2d_file(1)       = 'xx_qnet',
(PID.TID 0000.0001) > xx_gentim2d_weight(1)     = 'ones_64b.bin',
(PID.TID 0000.0001) > xx_gentim2d_startdate1(1) = 19920101,
(PID.TID 0000.0001) > xx_gentim2d_startdate2(1) = 000000,
(PID.TID 0000.0001) > xx_gentim2d_period(1)     = 864000.0,
(PID.TID 0000.0001) >#
(PID.TID 0000.0001) > xx_gentim2d_file(2)       = 'xx_empmr',
(PID.TID 0000.0001) > xx_gentim2d_weight(2)     = 'ones_64b.bin',
(PID.TID 0000.0001) > xx_gentim2d_startdate1(2) = 19920101,
(PID.TID 0000.0001) > xx_gentim2d_startdate2(2) = 000000,
(PID.TID 0000.0001) > xx_gentim2d_period(2)     = 864000.0,
(PID.TID 0000.0001) >#
(PID.TID 0000.0001) > xx_gentim2d_file(3)       = 'xx_fu',
(PID.TID 0000.0001) > xx_gentim2d_weight(3)     = 'ones_64b.bin',
(PID.TID 0000.0001) > xx_gentim2d_startdate1(3) = 19920101,
(PID.TID 0000.0001) > xx_gentim2d_startdate2(3) = 000000,
(PID.TID 0000.0001) > xx_gentim2d_period(3)     = 864000.0,
(PID.TID 0000.0001) >#
(PID.TID 0000.0001) > xx_gentim2d_file(4)       = 'xx_fv',
(PID.TID 0000.0001) > xx_gentim2d_weight(4)     = 'ones_64b.bin',
(PID.TID 0000.0001) > xx_gentim2d_startdate1(4) = 19920101,
(PID.TID 0000.0001) > xx_gentim2d_startdate2(4) = 000000,
(PID.TID 0000.0001) > xx_gentim2d_period(4)     = 864000.0,
(PID.TID 0000.0001) >#
(PID.TID 0000.0001) > /
(PID.TID 0000.0001) 
(PID.TID 0000.0001) CTRL_READPARMS: finished reading data.ctrl
(PID.TID 0000.0001) read-write ctrl files from current run directory
(PID.TID 0000.0001) COST_READPARMS: opening data.cost
(PID.TID 0000.0001)  OPEN_COPY_DATA_FILE: opening file data.cost
(PID.TID 0000.0001) // =======================================================
(PID.TID 0000.0001) // Parameter file "data.cost"
(PID.TID 0000.0001) // =======================================================
(PID.TID 0000.0001) >#
(PID.TID 0000.0001) >#
(PID.TID 0000.0001) ># ******************
(PID.TID 0000.0001) ># cost function
(PID.TID 0000.0001) ># ******************
(PID.TID 0000.0001) > &COST_NML
(PID.TID 0000.0001) >  mult_test = 1.,
(PID.TID 0000.0001) > /
(PID.TID 0000.0001) 
(PID.TID 0000.0001) COST_READPARMS: finished reading data.cost
(PID.TID 0000.0001) GRDCHK_READPARMS: opening data.grdchk
(PID.TID 0000.0001)  OPEN_COPY_DATA_FILE: opening file data.grdchk
(PID.TID 0000.0001) // =======================================================
(PID.TID 0000.0001) // Parameter file "data.grdchk"
(PID.TID 0000.0001) // =======================================================
(PID.TID 0000.0001) >
(PID.TID 0000.0001) ># *******************
(PID.TID 0000.0001) ># ECCO gradient check
(PID.TID 0000.0001) ># *******************
(PID.TID 0000.0001) > &GRDCHK_NML
(PID.TID 0000.0001) > grdchk_eps       = 1.,
(PID.TID 0000.0001) ># nbeg             = 4,
(PID.TID 0000.0001) > iGloPos          = 4,
(PID.TID 0000.0001) > jGloPos          = 8,
(PID.TID 0000.0001) > kGloPos          = 1,
(PID.TID 0000.0001) > nstep            = 1,
(PID.TID 0000.0001) > nend             = 4,
(PID.TID 0000.0001) > grdchkvarname    = "xx_qnet",
(PID.TID 0000.0001) > /
(PID.TID 0000.0001) 
(PID.TID 0000.0001) GRDCHK_READPARMS: finished reading data.grdchk
(PID.TID 0000.0001) SET_PARMS: done
(PID.TID 0000.0001) Enter INI_VERTICAL_GRID: setInterFDr=    T ; setCenterDr=    F
(PID.TID 0000.0001) %MON XC_max                       =   3.5800000000000E+02
(PID.TID 0000.0001) %MON XC_min                       =   2.0000000000000E+00
(PID.TID 0000.0001) %MON XC_mean                      =   1.8000000000000E+02
(PID.TID 0000.0001) %MON XC_sd                        =   1.0391663325314E+02
(PID.TID 0000.0001) %MON XG_max                       =   3.5600000000000E+02
(PID.TID 0000.0001) %MON XG_min                       =   0.0000000000000E+00
(PID.TID 0000.0001) %MON XG_mean                      =   1.7800000000000E+02
(PID.TID 0000.0001) %MON XG_sd                        =   1.0391663325314E+02
(PID.TID 0000.0001) %MON DXC_max                      =   4.4443898815675E+05
(PID.TID 0000.0001) %MON DXC_min                      =   9.2460385861875E+04
(PID.TID 0000.0001) %MON DXC_mean                     =   3.1372497618153E+05
(PID.TID 0000.0001) %MON DXC_sd                       =   1.1216447457560E+05
(PID.TID 0000.0001) %MON DXF_max                      =   4.4443898815675E+05
(PID.TID 0000.0001) %MON DXF_min                      =   9.2460385861875E+04
(PID.TID 0000.0001) %MON DXF_mean                     =   3.1372497618153E+05
(PID.TID 0000.0001) %MON DXF_sd                       =   1.1216447457560E+05
(PID.TID 0000.0001) %MON DXG_max                      =   4.4470989340816E+05
(PID.TID 0000.0001) %MON DXG_min                      =   7.7223062580781E+04
(PID.TID 0000.0001) %MON DXG_mean                     =   3.1353386340261E+05
(PID.TID 0000.0001) %MON DXG_sd                       =   1.1256651772502E+05
(PID.TID 0000.0001) %MON DXV_max                      =   4.4470989340816E+05
(PID.TID 0000.0001) %MON DXV_min                      =   7.7223062580781E+04
(PID.TID 0000.0001) %MON DXV_mean                     =   3.1353386340261E+05
(PID.TID 0000.0001) %MON DXV_sd                       =   1.1256651772502E+05
(PID.TID 0000.0001) %MON YC_max                       =   7.8000000000000E+01
(PID.TID 0000.0001) %MON YC_min                       =  -7.8000000000000E+01
(PID.TID 0000.0001) %MON YC_mean                      =   0.0000000000000E+00
(PID.TID 0000.0001) %MON YC_sd                        =   4.6173585522461E+01
(PID.TID 0000.0001) %MON YG_max                       =   7.6000000000000E+01
(PID.TID 0000.0001) %MON YG_min                       =  -8.0000000000000E+01
(PID.TID 0000.0001) %MON YG_mean                      =  -2.0000000000000E+00
(PID.TID 0000.0001) %MON YG_sd                        =   4.6173585522461E+01
(PID.TID 0000.0001) %MON DYC_max                      =   4.4470989340816E+05
(PID.TID 0000.0001) %MON DYC_min                      =   4.4470989340816E+05
(PID.TID 0000.0001) %MON DYC_mean                     =   4.4470989340816E+05
(PID.TID 0000.0001) %MON DYC_sd                       =   5.2968971431255E-09
(PID.TID 0000.0001) %MON DYF_max                      =   4.4470989340816E+05
(PID.TID 0000.0001) %MON DYF_min                      =   4.4470989340816E+05
(PID.TID 0000.0001) %MON DYF_mean                     =   4.4470989340816E+05
(PID.TID 0000.0001) %MON DYF_sd                       =   5.2968971431255E-09
(PID.TID 0000.0001) %MON DYG_max                      =   4.4470989340816E+05
(PID.TID 0000.0001) %MON DYG_min                      =   4.4470989340816E+05
(PID.TID 0000.0001) %MON DYG_mean                     =   4.4470989340816E+05
(PID.TID 0000.0001) %MON DYG_sd                       =   5.2968971431255E-09
(PID.TID 0000.0001) %MON DYU_max                      =   4.4470989340816E+05
(PID.TID 0000.0001) %MON DYU_min                      =   4.4470989340816E+05
(PID.TID 0000.0001) %MON DYU_mean                     =   4.4470989340816E+05
(PID.TID 0000.0001) %MON DYU_sd                       =   5.2968971431255E-09
(PID.TID 0000.0001) %MON RA_max                       =   1.9760627980089E+11
(PID.TID 0000.0001) %MON RA_min                       =   4.1109698667290E+10
(PID.TID 0000.0001) %MON RA_mean                      =   1.3948826965196E+11
(PID.TID 0000.0001) %MON RA_sd                        =   4.9870522472902E+10
(PID.TID 0000.0001) %MON RAW_max                      =   1.9760627980089E+11
(PID.TID 0000.0001) %MON RAW_min                      =   4.1109698667290E+10
(PID.TID 0000.0001) %MON RAW_mean                     =   1.3948826965196E+11
(PID.TID 0000.0001) %MON RAW_sd                       =   4.9870522472902E+10
(PID.TID 0000.0001) %MON RAS_max                      =   1.9772672958215E+11
(PID.TID 0000.0001) %MON RAS_min                      =   3.4334886267983E+10
(PID.TID 0000.0001) %MON RAS_mean                     =   1.3940329716694E+11
(PID.TID 0000.0001) %MON RAS_sd                       =   5.0049278732353E+10
(PID.TID 0000.0001) %MON RAZ_max                      =   1.9772672958215E+11
(PID.TID 0000.0001) %MON RAZ_min                      =   3.4334886267983E+10
(PID.TID 0000.0001) %MON RAZ_mean                     =   1.3940329716694E+11
(PID.TID 0000.0001) %MON RAZ_sd                       =   5.0049278732353E+10
(PID.TID 0000.0001) %MON AngleCS_max                  =   1.0000000000000E+00
(PID.TID 0000.0001) %MON AngleCS_min                  =   1.0000000000000E+00
(PID.TID 0000.0001) %MON AngleCS_mean                 =   1.0000000000000E+00
(PID.TID 0000.0001) %MON AngleCS_sd                   =   0.0000000000000E+00
(PID.TID 0000.0001) %MON AngleSN_max                  =   0.0000000000000E+00
(PID.TID 0000.0001) %MON AngleSN_min                  =   0.0000000000000E+00
(PID.TID 0000.0001) %MON AngleSN_mean                 =   0.0000000000000E+00
(PID.TID 0000.0001) %MON AngleSN_sd                   =   0.0000000000000E+00
(PID.TID 0000.0001) 
(PID.TID 0000.0001) // =======================================================
(PID.TID 0000.0001) // Calendar configuration >>> START <<<
(PID.TID 0000.0001) // =======================================================
(PID.TID 0000.0001) 
(PID.TID 0000.0001) modelstart = /* Start time of the model integration [s] */
(PID.TID 0000.0001)                 0.000000000000000E+00
(PID.TID 0000.0001)     ;
(PID.TID 0000.0001) modelend  = /* End time of the model integration [s] */
(PID.TID 0000.0001)                 8.640000000000000E+05
(PID.TID 0000.0001)     ;
(PID.TID 0000.0001) modelStep = /* Time interval for a model forward step [s] */
(PID.TID 0000.0001)                 4.320000000000000E+04
(PID.TID 0000.0001)     ;
(PID.TID 0000.0001) usingGregorianCalendar= /* Calendar Type: Gregorian Calendar */
(PID.TID 0000.0001)                   T
(PID.TID 0000.0001)     ;
(PID.TID 0000.0001) usingJulianCalendar = /* Calendar Type: Julian Calendar */
(PID.TID 0000.0001)                   F
(PID.TID 0000.0001)     ;
(PID.TID 0000.0001) usingNoLeapYearCal  = /* Calendar Type: without Leap Year */
(PID.TID 0000.0001)                   F
(PID.TID 0000.0001)     ;
(PID.TID 0000.0001) usingModelCalendar  = /* Calendar Type: Model Calendar */
(PID.TID 0000.0001)                   F
(PID.TID 0000.0001)     ;
(PID.TID 0000.0001) modelStartDate YYYYMMDD = /* Model start date YYYY-MM-DD */
(PID.TID 0000.0001)                19920101
(PID.TID 0000.0001)     ;
(PID.TID 0000.0001)   modelStartDate HHMMSS = /* Model start date HH-MM-SS  */
(PID.TID 0000.0001)                       0
(PID.TID 0000.0001)     ;
(PID.TID 0000.0001) modelEndDate   YYYYMMDD = /* Model end date YYYY-MM-DD */
(PID.TID 0000.0001)                19920111
(PID.TID 0000.0001)     ;
(PID.TID 0000.0001)   modelEndDate   HHMMSS = /* Model end date HH-MM-SS  */
(PID.TID 0000.0001)                       0
(PID.TID 0000.0001)     ;
(PID.TID 0000.0001) intyears = /* Number of calendar years affected by the integration */
(PID.TID 0000.0001)                       1
(PID.TID 0000.0001)     ;
(PID.TID 0000.0001) intmonths= /* Number of calendar months affected by the integration */
(PID.TID 0000.0001)                       1
(PID.TID 0000.0001)     ;
(PID.TID 0000.0001) intdays = /* Number of calendar days affected by the integration */
(PID.TID 0000.0001)                      10
(PID.TID 0000.0001)     ;
(PID.TID 0000.0001) modelIter0 = /* Base timestep number  */
(PID.TID 0000.0001)                       0
(PID.TID 0000.0001)     ;
(PID.TID 0000.0001) modelIterEnd = /* Final timestep number  */
(PID.TID 0000.0001)                      20
(PID.TID 0000.0001)     ;
(PID.TID 0000.0001) modelIntSteps= /* Number of model timesteps  */
(PID.TID 0000.0001)                      20
(PID.TID 0000.0001)     ;
(PID.TID 0000.0001) 
(PID.TID 0000.0001) // =======================================================
(PID.TID 0000.0001) // Calendar configuration  >>> END <<<
(PID.TID 0000.0001) // =======================================================
(PID.TID 0000.0001) 
(PID.TID 0000.0001) GAD_INIT_FIXED: GAD_OlMinSize=  1  0  1
(PID.TID 0000.0001) 
(PID.TID 0000.0001) // ===================================
(PID.TID 0000.0001) // GAD parameters :
(PID.TID 0000.0001) // ===================================
(PID.TID 0000.0001) tempAdvScheme =   /* Temp. Horiz.Advection scheme selector */
(PID.TID 0000.0001)                       2
(PID.TID 0000.0001)     ;
(PID.TID 0000.0001) tempVertAdvScheme =   /* Temp. Vert. Advection scheme selector */
(PID.TID 0000.0001)                       2
(PID.TID 0000.0001)     ;
(PID.TID 0000.0001) tempMultiDimAdvec =   /* use Muti-Dim Advec method for Temp */
(PID.TID 0000.0001)                   F
(PID.TID 0000.0001)     ;
(PID.TID 0000.0001) tempSOM_Advection = /* use 2nd Order Moment Advection for Temp */
(PID.TID 0000.0001)                   F
(PID.TID 0000.0001)     ;
(PID.TID 0000.0001) AdamsBashforthGt = /* apply Adams-Bashforth extrapolation on Gt */
(PID.TID 0000.0001)                   T
(PID.TID 0000.0001)     ;
(PID.TID 0000.0001) AdamsBashforth_T = /* apply Adams-Bashforth extrapolation on Temp */
(PID.TID 0000.0001)                   F
(PID.TID 0000.0001)     ;
(PID.TID 0000.0001) saltAdvScheme =   /* Salt. Horiz.advection scheme selector */
(PID.TID 0000.0001)                       2
(PID.TID 0000.0001)     ;
(PID.TID 0000.0001) saltVertAdvScheme =   /* Salt. Vert. Advection scheme selector */
(PID.TID 0000.0001)                       2
(PID.TID 0000.0001)     ;
(PID.TID 0000.0001) saltMultiDimAdvec =   /* use Muti-Dim Advec method for Salt */
(PID.TID 0000.0001)                   F
(PID.TID 0000.0001)     ;
(PID.TID 0000.0001) saltSOM_Advection = /* use 2nd Order Moment Advection for Salt */
(PID.TID 0000.0001)                   F
(PID.TID 0000.0001)     ;
(PID.TID 0000.0001) AdamsBashforthGs = /* apply Adams-Bashforth extrapolation on Gs */
(PID.TID 0000.0001)                   T
(PID.TID 0000.0001)     ;
(PID.TID 0000.0001) AdamsBashforth_S = /* apply Adams-Bashforth extrapolation on Salt */
(PID.TID 0000.0001)                   F
(PID.TID 0000.0001)     ;
(PID.TID 0000.0001) // ===================================
(PID.TID 0000.0001) 
(PID.TID 0000.0001) // =======================================================
(PID.TID 0000.0001) // External forcing (EXF) configuration >>> START <<<
(PID.TID 0000.0001) // =======================================================
(PID.TID 0000.0001) 
(PID.TID 0000.0001)  EXF general parameters:
(PID.TID 0000.0001) 
(PID.TID 0000.0001) exf_iprec = /* exf file precision */
(PID.TID 0000.0001)                      32
(PID.TID 0000.0001)     ;
(PID.TID 0000.0001) useExfYearlyFields = /* add extension _YEAR to input file names */
(PID.TID 0000.0001)                   F
(PID.TID 0000.0001)     ;
(PID.TID 0000.0001) twoDigitYear = /* use 2-digit year extension */
(PID.TID 0000.0001)                   F
(PID.TID 0000.0001)     ;
(PID.TID 0000.0001) useExfCheckRange = /* check for fields range */
(PID.TID 0000.0001)                   T
(PID.TID 0000.0001)     ;
(PID.TID 0000.0001) exf_output_interp = /* output directly interpolation result */
(PID.TID 0000.0001)                   F
(PID.TID 0000.0001)     ;
(PID.TID 0000.0001) diags_opOceWeighted = /* weight flux diags by open-ocean fraction */
(PID.TID 0000.0001)                   F
(PID.TID 0000.0001)     ;
(PID.TID 0000.0001) exf_debugLev = /* select EXF-debug printing level */
(PID.TID 0000.0001)                       3
(PID.TID 0000.0001)     ;
(PID.TID 0000.0001) exf_monFreq  = /* EXF monitor frequency [ s ] */
(PID.TID 0000.0001)                 4.320000000000000E+05
(PID.TID 0000.0001)     ;
(PID.TID 0000.0001) exf_adjMonSelect = /* select group of exf AD-variables to monitor */
(PID.TID 0000.0001)                       3
(PID.TID 0000.0001)     ;
(PID.TID 0000.0001) repeatPeriod = /* period for cycling forcing dataset [ s ] */
(PID.TID 0000.0001)                 0.000000000000000E+00
(PID.TID 0000.0001)     ;
(PID.TID 0000.0001) climTempFreeze= /* Minimum climatological temperature [deg.C] */
(PID.TID 0000.0001)                -1.900000000000000E+00
(PID.TID 0000.0001)     ;
(PID.TID 0000.0001) windStressMax = /* Maximum absolute windstress [ Pa ] */
(PID.TID 0000.0001)                 2.000000000000000E+00
(PID.TID 0000.0001)     ;
(PID.TID 0000.0001) stressIsOnCgrid = /* set u,v_stress on Arakawa C-grid */
(PID.TID 0000.0001)                   F
(PID.TID 0000.0001)     ;
(PID.TID 0000.0001) rotateStressOnAgrid = /* rotate u,v_stress on Arakawa A-grid */
(PID.TID 0000.0001)                   F
(PID.TID 0000.0001)     ;
(PID.TID 0000.0001) cen2kel = /* conversion of deg. Centigrade to Kelvin [K] */
(PID.TID 0000.0001)                 2.731500000000000E+02
(PID.TID 0000.0001)     ;
(PID.TID 0000.0001) gravity_mks= /* gravitational acceleration [m/s^2] */
(PID.TID 0000.0001)                 9.810000000000000E+00
(PID.TID 0000.0001)     ;
(PID.TID 0000.0001) atmrho =  /* mean atmospheric density [kg/m^3] */
(PID.TID 0000.0001)                 1.200000000000000E+00
(PID.TID 0000.0001)     ;
(PID.TID 0000.0001) atmcp =  /* mean atmospheric specific heat [J/kg/K] */
(PID.TID 0000.0001)                 1.005000000000000E+03
(PID.TID 0000.0001)     ;
(PID.TID 0000.0001) flamb =  /* latent heat of evaporation [J/kg] */
(PID.TID 0000.0001)                 2.500000000000000E+06
(PID.TID 0000.0001)     ;
(PID.TID 0000.0001) flami =  /* latent heat of pure-ice melting [J/kg] */
(PID.TID 0000.0001)                 3.340000000000000E+05
(PID.TID 0000.0001)     ;
(PID.TID 0000.0001) cvapor_fac = /* const. for Saturation calculation [?] */
(PID.TID 0000.0001)                 6.403800000000000E+05
(PID.TID 0000.0001)     ;
(PID.TID 0000.0001) cvapor_exp = /* const. for Saturation calculation [?] */
(PID.TID 0000.0001)                 5.107400000000000E+03
(PID.TID 0000.0001)     ;
(PID.TID 0000.0001) cvapor_fac_ice= /* const. for Saturation calculation [?] */
(PID.TID 0000.0001)                 1.163780000000000E+07
(PID.TID 0000.0001)     ;
(PID.TID 0000.0001) cvapor_exp_ice= /* const. for Saturation calculation [?] */
(PID.TID 0000.0001)                 5.897800000000000E+03
(PID.TID 0000.0001)     ;
(PID.TID 0000.0001) humid_fac = /* humidity coef. in virtual temp. [(kg/kg)^-1] */
(PID.TID 0000.0001)                 6.060000000000000E-01
(PID.TID 0000.0001)     ;
(PID.TID 0000.0001) gamma_blk = /* adiabatic lapse rate [?] */
(PID.TID 0000.0001)                 1.000000000000000E-02
(PID.TID 0000.0001)     ;
(PID.TID 0000.0001) saltsat = /* reduction of Qsat over salty water [-] */
(PID.TID 0000.0001)                 9.800000000000000E-01
(PID.TID 0000.0001)     ;
(PID.TID 0000.0001) noNegativeEvap = /* prevent negative Evaporation */
(PID.TID 0000.0001)                   F
(PID.TID 0000.0001)     ;
(PID.TID 0000.0001) sstExtrapol = /* extrapolation coeff from lev. 1 & 2 to surf [-] */
(PID.TID 0000.0001)                 0.000000000000000E+00
(PID.TID 0000.0001)     ;
(PID.TID 0000.0001) cDrag_1 = /* coef used in drag calculation [m/s] */
(PID.TID 0000.0001)                 2.700000000000000E-03
(PID.TID 0000.0001)     ;
(PID.TID 0000.0001) cDrag_2 = /* coef used in drag calculation [-] */
(PID.TID 0000.0001)                 1.420000000000000E-04
(PID.TID 0000.0001)     ;
(PID.TID 0000.0001) cDrag_3 = /* coef used in drag calculation [s/m] */
(PID.TID 0000.0001)                 7.640000000000000E-05
(PID.TID 0000.0001)     ;
(PID.TID 0000.0001) cDrag_8 = /* coef used in drag calculation [(s/m)^6] */
(PID.TID 0000.0001)                 1.234567000000000E+05
(PID.TID 0000.0001)     ;
(PID.TID 0000.0001) cDragMax = /* maximum drag (Large and Yeager, 2009) [-] */
(PID.TID 0000.0001)                 1.234567000000000E+05
(PID.TID 0000.0001)     ;
(PID.TID 0000.0001) umax = /* at maximum wind (Large and Yeager, 2009) [m/s] */
(PID.TID 0000.0001)                 1.234567000000000E+05
(PID.TID 0000.0001)     ;
(PID.TID 0000.0001) cStanton_1 = /* coef used in Stanton number calculation [-] */
(PID.TID 0000.0001)                 3.270000000000000E-02
(PID.TID 0000.0001)     ;
(PID.TID 0000.0001) cStanton_2 = /* coef used in Stanton number calculation [-] */
(PID.TID 0000.0001)                 1.800000000000000E-02
(PID.TID 0000.0001)     ;
(PID.TID 0000.0001) cDalton = /* Dalton number [-] */
(PID.TID 0000.0001)                 3.460000000000000E-02
(PID.TID 0000.0001)     ;
(PID.TID 0000.0001) exf_scal_BulkCdn= /* Drag coefficient scaling factor [-] */
(PID.TID 0000.0001)                 1.000000000000000E+00
(PID.TID 0000.0001)     ;
(PID.TID 0000.0001) zolmin = /* minimum stability parameter [?] */
(PID.TID 0000.0001)                -1.000000000000000E+02
(PID.TID 0000.0001)     ;
(PID.TID 0000.0001) psim_fac = /* coef used in turbulent fluxes calculation [-] */
(PID.TID 0000.0001)                 5.000000000000000E+00
(PID.TID 0000.0001)     ;
(PID.TID 0000.0001) zref =  /* reference height [ m ] */
(PID.TID 0000.0001)                 1.000000000000000E+01
(PID.TID 0000.0001)     ;
(PID.TID 0000.0001) hu =  /* height of mean wind [ m ] */
(PID.TID 0000.0001)                 1.000000000000000E+01
(PID.TID 0000.0001)     ;
(PID.TID 0000.0001) ht =  /* height of mean temperature [ m ] */
(PID.TID 0000.0001)                 2.000000000000000E+00
(PID.TID 0000.0001)     ;
(PID.TID 0000.0001) hq =  /* height of mean spec.humidity [ m ] */
(PID.TID 0000.0001)                 2.000000000000000E+00
(PID.TID 0000.0001)     ;
(PID.TID 0000.0001) uMin = /* minimum wind speed [m/s] */
(PID.TID 0000.0001)                 5.000000000000000E-01
(PID.TID 0000.0001)     ;
(PID.TID 0000.0001) useStabilityFct_overIce= /* transfert Coeffs over sea-ice depend on stability */
(PID.TID 0000.0001)                   F
(PID.TID 0000.0001)     ;
(PID.TID 0000.0001) exf_iceCd = /* drag coefficient over sea-ice (fixed) [-] */
(PID.TID 0000.0001)                 1.630000000000000E-03
(PID.TID 0000.0001)     ;
(PID.TID 0000.0001) exf_iceCe = /* transfert coeff. over sea-ice, for Evap (fixed) [-] */
(PID.TID 0000.0001)                 1.630000000000000E-03
(PID.TID 0000.0001)     ;
(PID.TID 0000.0001) exf_iceCh = /* transfert coeff. over sea-ice, Sens.Heat.(fixed)[-] */
(PID.TID 0000.0001)                 1.630000000000000E-03
(PID.TID 0000.0001)     ;
(PID.TID 0000.0001) exf_albedo =  /* Sea-water albedo [-] */
(PID.TID 0000.0001)                 1.000000000000000E-01
(PID.TID 0000.0001)     ;
(PID.TID 0000.0001) useExfZenAlbedo = /* Sea-water albedo varies with zenith angle */
(PID.TID 0000.0001)                   F
(PID.TID 0000.0001)     ;
(PID.TID 0000.0001) select_ZenAlbedo = /* Sea-water albedo computation method */
(PID.TID 0000.0001)                       0
(PID.TID 0000.0001)     ;
(PID.TID 0000.0001) useExfZenIncoming = /* compute incoming solar radiation */
(PID.TID 0000.0001)                   F
(PID.TID 0000.0001)     ;
(PID.TID 0000.0001) ocean_emissivity = /* longwave ocean-surface emissivity [-] */
(PID.TID 0000.0001)                 9.700176366843034E-01
(PID.TID 0000.0001)     ;
(PID.TID 0000.0001) ice_emissivity = /* longwave seaice emissivity [-] */
(PID.TID 0000.0001)                 9.500000000000000E-01
(PID.TID 0000.0001)     ;
(PID.TID 0000.0001) snow_emissivity = /* longwave snow  emissivity [-] */
(PID.TID 0000.0001)                 9.500000000000000E-01
(PID.TID 0000.0001)     ;
(PID.TID 0000.0001) 
(PID.TID 0000.0001)  EXF main CPP flags:
(PID.TID 0000.0001) 
(PID.TID 0000.0001) // USE_EXF_INTERPOLATION:              defined
(PID.TID 0000.0001) // ALLOW_ATM_TEMP:                 NOT defined
(PID.TID 0000.0001) // ALLOW_ATM_WIND (useAtmWind):    NOT defined
(PID.TID 0000.0001) // ALLOW_DOWNWARD_RADIATION:       NOT defined
(PID.TID 0000.0001) // ALLOW_BULKFORMULAE:             NOT defined
(PID.TID 0000.0001) 
(PID.TID 0000.0001)    Zonal wind stress forcing period is                 -12.
(PID.TID 0000.0001)    Zonal wind stress forcing is read from file:
(PID.TID 0000.0001)    >> trenberth_taux.bin <<
(PID.TID 0000.0001)    interpolate "ustress" (method= 12 ):
(PID.TID 0000.0001)    lon0=   2.00000, nlon=    90, lon_inc= 4.0000000
(PID.TID 0000.0001)    lat0= -78.00000, nlat=    40, lat_inc= 4.0000000
(PID.TID 0000.0001) 
(PID.TID 0000.0001)    Meridional wind stress forcing period is            -12.
(PID.TID 0000.0001)    Meridional wind stress forcing is read from file:
(PID.TID 0000.0001)    >> trenberth_tauy.bin <<
(PID.TID 0000.0001)    interpolate "vstress" (method= 22 ):
(PID.TID 0000.0001)    lon0=   2.00000, nlon=    90, lon_inc= 4.0000000
(PID.TID 0000.0001)    lat0= -78.00000, nlat=    40, lat_inc= 4.0000000
(PID.TID 0000.0001)     Interp. U & V comp. together: uvInterp_stress =    T
(PID.TID 0000.0001) 
(PID.TID 0000.0001)    Heat flux forcing period is                         -12.
(PID.TID 0000.0001)    Heat flux forcing is read from file:
(PID.TID 0000.0001)    >> ncep_qnet.bin <<
(PID.TID 0000.0001)    interpolate "hflux" (method=  1 ):
(PID.TID 0000.0001)    lon0=   2.00000, nlon=    90, lon_inc= 4.0000000
(PID.TID 0000.0001)    lat0= -78.00000, nlat=    40, lat_inc= 4.0000000
(PID.TID 0000.0001) 
(PID.TID 0000.0001) // EXF_READ_EVAP:                  NOT defined
(PID.TID 0000.0001) // ALLOW_RUNOFF:                   NOT defined
(PID.TID 0000.0001) // ALLOW_SALTFLX:                  NOT defined
(PID.TID 0000.0001) 
(PID.TID 0000.0001) // =======================================================
(PID.TID 0000.0001) // External forcing (EXF) climatology configuration :
(PID.TID 0000.0001) // =======================================================
(PID.TID 0000.0001) 
(PID.TID 0000.0001) // ALLOW_CLIMSST_RELAXATION:           defined
(PID.TID 0000.0001)    Climatological SST period is                        -12.
(PID.TID 0000.0001)    Climatological SST is read from file:
(PID.TID 0000.0001)    >> lev_sst.bin <<
(PID.TID 0000.0001)    interpolate "climsst" (method=  1 ):
(PID.TID 0000.0001)    lon0=   2.00000, nlon=    90, lon_inc= 4.0000000
(PID.TID 0000.0001)    lat0= -78.00000, nlat=    40, lat_inc= 4.0000000
(PID.TID 0000.0001) 
(PID.TID 0000.0001) // ALLOW_CLIMSSS_RELAXATION:           defined
(PID.TID 0000.0001)    Climatological SSS period is                        -12.
(PID.TID 0000.0001)    Climatological SSS is read from file:
(PID.TID 0000.0001)    >> lev_sss.bin <<
(PID.TID 0000.0001)    interpolate "climsss" (method=  1 ):
(PID.TID 0000.0001)    lon0=   2.00000, nlon=    90, lon_inc= 4.0000000
(PID.TID 0000.0001)    lat0= -78.00000, nlat=    40, lat_inc= 4.0000000
(PID.TID 0000.0001) 
(PID.TID 0000.0001) // =======================================================
(PID.TID 0000.0001) // External forcing (EXF) configuration  >>> END <<<
(PID.TID 0000.0001) // =======================================================
(PID.TID 0000.0001) 
(PID.TID 0000.0001) CTRL_INIT_FIXED: ivar=   6 = number of CTRL variables defined
(PID.TID 0000.0001) 
(PID.TID 0000.0001) ctrl-wet 1:    nvarlength =        85573
(PID.TID 0000.0001) ctrl-wet 2: surface wet C =          669
(PID.TID 0000.0001) ctrl-wet 3: surface wet W =          640
(PID.TID 0000.0001) ctrl-wet 4: surface wet S =          610
(PID.TID 0000.0001) ctrl-wet 5: 3D wet points =         8651
(PID.TID 0000.0001) ctrl-wet 6: no recs for ivar =     1           1
(PID.TID 0000.0001) ctrl-wet 6: no recs for ivar =     2           1
(PID.TID 0000.0001) ctrl-wet 6: no recs for ivar =     3           3
(PID.TID 0000.0001) ctrl-wet 6: no recs for ivar =     4           3
(PID.TID 0000.0001) ctrl-wet 6: no recs for ivar =     5           3
(PID.TID 0000.0001) ctrl-wet 6: no recs for ivar =     6           3
(PID.TID 0000.0001) ctrl-wet 6: no recs for ivar =     7           0
(PID.TID 0000.0001) ctrl-wet -------------------------------------------------
(PID.TID 0000.0001) ctrl-wet 13: global nvarlength for Nr =   15       85573
(PID.TID 0000.0001) ctrl-wet -------------------------------------------------
(PID.TID 0000.0001) ctrl-wet 14: global nWet C/S/W k=    1        2315        2149        2206
(PID.TID 0000.0001) ctrl-wet 14: global nWet C/S/W k=    2        2315        2149        2206
(PID.TID 0000.0001) ctrl-wet 14: global nWet C/S/W k=    3        2254        2102        2146
(PID.TID 0000.0001) ctrl-wet 14: global nWet C/S/W k=    4        2215        2058        2104
(PID.TID 0000.0001) ctrl-wet 14: global nWet C/S/W k=    5        2178        2027        2070
(PID.TID 0000.0001) ctrl-wet 14: global nWet C/S/W k=    6        2142        1987        2029
(PID.TID 0000.0001) ctrl-wet 14: global nWet C/S/W k=    7        2114        1959        2004
(PID.TID 0000.0001) ctrl-wet 14: global nWet C/S/W k=    8        2076        1918        1959
(PID.TID 0000.0001) ctrl-wet 14: global nWet C/S/W k=    9        2048        1887        1925
(PID.TID 0000.0001) ctrl-wet 14: global nWet C/S/W k=   10        1999        1831        1869
(PID.TID 0000.0001) ctrl-wet 14: global nWet C/S/W k=   11        1948        1771        1808
(PID.TID 0000.0001) ctrl-wet 14: global nWet C/S/W k=   12        1850        1653        1705
(PID.TID 0000.0001) ctrl-wet 14: global nWet C/S/W k=   13        1655        1404        1458
(PID.TID 0000.0001) ctrl-wet 14: global nWet C/S/W k=   14        1372        1118        1164
(PID.TID 0000.0001) ctrl-wet 14: global nWet C/S/W k=   15         828         623         671
(PID.TID 0000.0001) ctrl-wet -------------------------------------------------
(PID.TID 0000.0001) ctrl_init_wet: no. of control variables:            6
(PID.TID 0000.0001) ctrl_init_wet: control vector length:           85573
(PID.TID 0000.0001) 
(PID.TID 0000.0001) // =======================================================
(PID.TID 0000.0001) // control vector configuration  >>> START <<<
(PID.TID 0000.0001) // =======================================================
(PID.TID 0000.0001) 
(PID.TID 0000.0001)  Total number of ocean points per tile:
(PID.TID 0000.0001)  --------------------------------------
(PID.TID 0000.0001)  sNx*sNy*Nr =    13500
(PID.TID 0000.0001) 
(PID.TID 0000.0001)  Number of ocean points per tile:
(PID.TID 0000.0001)  --------------------------------
(PID.TID 0000.0001)  bi,bj,#(c/s/w): 001 001    8651    7584    8016
(PID.TID 0000.0001)  bi,bj,#(c/s/w): 002 001   10278    9360    9834
(PID.TID 0000.0001)  bi,bj,#(c/s/w): 001 002    3504    3232    3049
(PID.TID 0000.0001)  bi,bj,#(c/s/w): 002 002    6876    6460    6425
(PID.TID 0000.0001) 
(PID.TID 0000.0001)  -> 3d control, genarr3d no.  1 is in use
(PID.TID 0000.0001)       file       = xx_theta
(PID.TID 0000.0001)       ncvartype  = Arr3D
(PID.TID 0000.0001)       index      =     1  (use this for pkg/grdchk)
(PID.TID 0000.0001)       ncvarindex =     1
(PID.TID 0000.0001)       weight     = ones_64b.bin
(PID.TID 0000.0001) 
(PID.TID 0000.0001)  -> 3d control, genarr3d no.  2 is in use
(PID.TID 0000.0001)       file       = xx_salt
(PID.TID 0000.0001)       ncvartype  = Arr3D
(PID.TID 0000.0001)       index      =     2  (use this for pkg/grdchk)
(PID.TID 0000.0001)       ncvarindex =     2
(PID.TID 0000.0001)       weight     = ones_64b.bin
(PID.TID 0000.0001) 
(PID.TID 0000.0001)  -> time variable 2d control, gentim2d no.  1 is in use
(PID.TID 0000.0001)       file       = xx_qnet
(PID.TID 0000.0001)       ncvartype  = Tim2D
(PID.TID 0000.0001)       index      =     3  (use this for pkg/grdchk)
(PID.TID 0000.0001)       ncvarindex =     1
(PID.TID 0000.0001)       weight     = ones_64b.bin
(PID.TID 0000.0001)       period     =  00000010 000000
(PID.TID 0000.0001) 
(PID.TID 0000.0001)  -> time variable 2d control, gentim2d no.  2 is in use
(PID.TID 0000.0001)       file       = xx_empmr
(PID.TID 0000.0001)       ncvartype  = Tim2D
(PID.TID 0000.0001)       index      =     4  (use this for pkg/grdchk)
(PID.TID 0000.0001)       ncvarindex =     2
(PID.TID 0000.0001)       weight     = ones_64b.bin
(PID.TID 0000.0001)       period     =  00000010 000000
(PID.TID 0000.0001) 
(PID.TID 0000.0001)  -> time variable 2d control, gentim2d no.  3 is in use
(PID.TID 0000.0001)       file       = xx_fu
(PID.TID 0000.0001)       ncvartype  = Tim2D
(PID.TID 0000.0001)       index      =     5  (use this for pkg/grdchk)
(PID.TID 0000.0001)       ncvarindex =     3
(PID.TID 0000.0001)       weight     = ones_64b.bin
(PID.TID 0000.0001)       period     =  00000010 000000
(PID.TID 0000.0001) 
(PID.TID 0000.0001)  -> time variable 2d control, gentim2d no.  4 is in use
(PID.TID 0000.0001)       file       = xx_fv
(PID.TID 0000.0001)       ncvartype  = Tim2D
(PID.TID 0000.0001)       index      =     6  (use this for pkg/grdchk)
(PID.TID 0000.0001)       ncvarindex =     4
(PID.TID 0000.0001)       weight     = ones_64b.bin
(PID.TID 0000.0001)       period     =  00000010 000000
(PID.TID 0000.0001) 
(PID.TID 0000.0001) // =======================================================
(PID.TID 0000.0001) // control vector configuration  >>> END <<<
(PID.TID 0000.0001) // =======================================================
(PID.TID 0000.0001) 
(PID.TID 0000.0001) %MON fCori_max                    =   1.4226580169407E-04
(PID.TID 0000.0001) %MON fCori_min                    =  -1.4226580169407E-04
(PID.TID 0000.0001) %MON fCori_mean                   =  -1.9274705288631E-19
(PID.TID 0000.0001) %MON fCori_sd                     =   9.6335367303779E-05
(PID.TID 0000.0001) %MON fCoriG_max                   =   1.4112379284621E-04
(PID.TID 0000.0001) %MON fCoriG_min                   =  -1.4323448157692E-04
(PID.TID 0000.0001) %MON fCoriG_mean                  =  -3.5808620394228E-06
(PID.TID 0000.0001) %MON fCoriG_sd                    =   9.6285194120965E-05
(PID.TID 0000.0001) %MON fCoriCos_max                 =   1.4535550371427E-04
(PID.TID 0000.0001) %MON fCoriCos_min                 =   3.0239529651320E-05
(PID.TID 0000.0001) %MON fCoriCos_mean                =   1.0260497651149E-04
(PID.TID 0000.0001) %MON fCoriCos_sd                  =   3.6683828681187E-05
(PID.TID 0000.0001) INI_CG2D: CG2D normalisation factor =  6.5682677425711703E-05
(PID.TID 0000.0001) 
(PID.TID 0000.0001) // =======================================================
(PID.TID 0000.0001) // Model configuration
(PID.TID 0000.0001) // =======================================================
(PID.TID 0000.0001) //
(PID.TID 0000.0001) // "Physical" paramters ( PARM01 in namelist )
(PID.TID 0000.0001) //
(PID.TID 0000.0001) buoyancyRelation = /* Type of relation to get Buoyancy */
(PID.TID 0000.0001)               'OCEANIC'
(PID.TID 0000.0001)     ;
(PID.TID 0000.0001) fluidIsAir   =  /* fluid major constituent is Air */
(PID.TID 0000.0001)                   F
(PID.TID 0000.0001)     ;
(PID.TID 0000.0001) fluidIsWater =  /* fluid major constituent is Water */
(PID.TID 0000.0001)                   T
(PID.TID 0000.0001)     ;
(PID.TID 0000.0001) usingPCoords =  /* use p (or p*) vertical coordinate */
(PID.TID 0000.0001)                   F
(PID.TID 0000.0001)     ;
(PID.TID 0000.0001) usingZCoords =  /* use z (or z*) vertical coordinate */
(PID.TID 0000.0001)                   T
(PID.TID 0000.0001)     ;
(PID.TID 0000.0001) tRef =   /* Reference temperature profile ( oC or K ) */
(PID.TID 0000.0001)    15 @  2.000000000000000E+01              /* K =  1: 15 */
(PID.TID 0000.0001)     ;
(PID.TID 0000.0001) sRef =   /* Reference salinity profile ( g/kg ) */
(PID.TID 0000.0001)    15 @  3.500000000000000E+01              /* K =  1: 15 */
(PID.TID 0000.0001)     ;
(PID.TID 0000.0001) rhoRef =   /* Density vertical profile from (Ref,sRef)( kg/m^3 ) */
(PID.TID 0000.0001)                 1.024872626184147E+03,      /* K =  1 */
(PID.TID 0000.0001)                 1.025135462285008E+03,      /* K =  2 */
(PID.TID 0000.0001)                 1.025507198938228E+03,      /* K =  3 */
(PID.TID 0000.0001)                 1.026030780760464E+03,      /* K =  4 */
(PID.TID 0000.0001)                 1.026748377776259E+03,      /* K =  5 */
(PID.TID 0000.0001)                 1.027679406285166E+03,      /* K =  6 */
(PID.TID 0000.0001)                 1.028820735595355E+03,      /* K =  7 */
(PID.TID 0000.0001)                 1.030168558073105E+03,      /* K =  8 */
(PID.TID 0000.0001)                 1.031718419899614E+03,      /* K =  9 */
(PID.TID 0000.0001)                 1.033465256541184E+03,      /* K = 10 */
(PID.TID 0000.0001)                 1.035403432414885E+03,      /* K = 11 */
(PID.TID 0000.0001)                 1.037526784183520E+03,      /* K = 12 */
(PID.TID 0000.0001)                 1.039828667078104E+03,      /* K = 13 */
(PID.TID 0000.0001)                 1.042302003623418E+03,      /* K = 14 */
(PID.TID 0000.0001)                 1.044939334132512E+03       /* K = 15 */
(PID.TID 0000.0001)     ;
(PID.TID 0000.0001) dBdrRef = /* Vertical grad. of reference buoyancy [(m/s/r)^2] */
(PID.TID 0000.0001)    15 @  0.000000000000000E+00              /* K =  1: 15 */
(PID.TID 0000.0001)     ;
(PID.TID 0000.0001) useStrainTensionVisc= /* Use StrainTension Form of Viscous Operator */
(PID.TID 0000.0001)                   F
(PID.TID 0000.0001)     ;
(PID.TID 0000.0001) useVariableVisc = /* Use variable horizontal viscosity */
(PID.TID 0000.0001)                   F
(PID.TID 0000.0001)     ;
(PID.TID 0000.0001) useHarmonicVisc = /* Use harmonic horizontal viscosity */
(PID.TID 0000.0001)                   T
(PID.TID 0000.0001)     ;
(PID.TID 0000.0001) useBiharmonicVisc= /* Use biharmonic horiz.  viscosity */
(PID.TID 0000.0001)                   F
(PID.TID 0000.0001)     ;
(PID.TID 0000.0001) useSmag3D = /* Use isotropic 3-D Smagorinsky viscosity */
(PID.TID 0000.0001)                   F
(PID.TID 0000.0001)     ;
(PID.TID 0000.0001) viscAh  =   /* Lateral harmonic viscosity ( m^2/s ) */
(PID.TID 0000.0001)                 5.000000000000000E+05
(PID.TID 0000.0001)     ;
(PID.TID 0000.0001) viscA4  =   /* Lateral biharmonic viscosity ( m^4/s ) */
(PID.TID 0000.0001)                 0.000000000000000E+00
(PID.TID 0000.0001)     ;
(PID.TID 0000.0001) no_slip_sides =  /* Viscous BCs: No-slip sides */
(PID.TID 0000.0001)                   T
(PID.TID 0000.0001)     ;
(PID.TID 0000.0001) sideDragFactor = /* side-drag scaling factor (non-dim) */
(PID.TID 0000.0001)                 2.000000000000000E+00
(PID.TID 0000.0001)     ;
(PID.TID 0000.0001) viscArNr = /* vertical profile of vertical viscosity ( m^2/s )*/
(PID.TID 0000.0001)    15 @  1.000000000000000E-03              /* K =  1: 15 */
(PID.TID 0000.0001)     ;
(PID.TID 0000.0001) no_slip_bottom =  /* Viscous BCs: No-slip bottom */
(PID.TID 0000.0001)                   T
(PID.TID 0000.0001)     ;
(PID.TID 0000.0001) bottomVisc_pCell = /* Partial-cell in bottom Visc. BC */
(PID.TID 0000.0001)                   F
(PID.TID 0000.0001)     ;
(PID.TID 0000.0001) bottomDragLinear = /* linear bottom-drag coefficient ( m/s ) */
(PID.TID 0000.0001)                 0.000000000000000E+00
(PID.TID 0000.0001)     ;
(PID.TID 0000.0001) bottomDragQuadratic = /* quadratic bottom-drag coefficient (-) */
(PID.TID 0000.0001)                 0.000000000000000E+00
(PID.TID 0000.0001)     ;
(PID.TID 0000.0001) selectBotDragQuadr = /* select quadratic bottom drag options */
(PID.TID 0000.0001)                      -1
(PID.TID 0000.0001)     ;
(PID.TID 0000.0001) diffKhT =   /* Laplacian diffusion of heat laterally ( m^2/s ) */
(PID.TID 0000.0001)                 0.000000000000000E+00
(PID.TID 0000.0001)     ;
(PID.TID 0000.0001) diffK4T =   /* Biharmonic diffusion of heat laterally ( m^4/s ) */
(PID.TID 0000.0001)                 0.000000000000000E+00
(PID.TID 0000.0001)     ;
(PID.TID 0000.0001) diffKhS =   /* Laplacian diffusion of salt laterally ( m^2/s ) */
(PID.TID 0000.0001)                 0.000000000000000E+00
(PID.TID 0000.0001)     ;
(PID.TID 0000.0001) diffK4S =   /* Biharmonic diffusion of salt laterally ( m^4/s ) */
(PID.TID 0000.0001)                 0.000000000000000E+00
(PID.TID 0000.0001)     ;
(PID.TID 0000.0001) diffKrNrT = /* vertical profile of vertical diffusion of Temp ( m^2/s )*/
(PID.TID 0000.0001)    15 @  3.000000000000000E-05              /* K =  1: 15 */
(PID.TID 0000.0001)     ;
(PID.TID 0000.0001) diffKrNrS = /* vertical profile of vertical diffusion of Salt ( m^2/s )*/
(PID.TID 0000.0001)    15 @  3.000000000000000E-05              /* K =  1: 15 */
(PID.TID 0000.0001)     ;
(PID.TID 0000.0001) diffKrBL79surf = /* Surface diffusion for Bryan and Lewis 79 ( m^2/s ) */
(PID.TID 0000.0001)                 0.000000000000000E+00
(PID.TID 0000.0001)     ;
(PID.TID 0000.0001) diffKrBL79deep = /* Deep diffusion for Bryan and Lewis 1979 ( m^2/s ) */
(PID.TID 0000.0001)                 0.000000000000000E+00
(PID.TID 0000.0001)     ;
(PID.TID 0000.0001) diffKrBL79scl = /* Depth scale for Bryan and Lewis 1979 ( m ) */
(PID.TID 0000.0001)                 2.000000000000000E+02
(PID.TID 0000.0001)     ;
(PID.TID 0000.0001) diffKrBL79Ho = /* Turning depth for Bryan and Lewis 1979 ( m ) */
(PID.TID 0000.0001)                -2.000000000000000E+03
(PID.TID 0000.0001)     ;
(PID.TID 0000.0001) ivdc_kappa = /* Implicit Vertical Diffusivity for Convection ( m^2/s) */
(PID.TID 0000.0001)                 1.000000000000000E+02
(PID.TID 0000.0001)     ;
(PID.TID 0000.0001) hMixCriteria=  /* Criteria for mixed-layer diagnostic */
(PID.TID 0000.0001)                -8.000000000000000E-01
(PID.TID 0000.0001)     ;
(PID.TID 0000.0001) dRhoSmall =  /* Parameter for mixed-layer diagnostic */
(PID.TID 0000.0001)                 1.000000000000000E-06
(PID.TID 0000.0001)     ;
(PID.TID 0000.0001) hMixSmooth=  /* Smoothing parameter for mixed-layer diagnostic */
(PID.TID 0000.0001)                 0.000000000000000E+00
(PID.TID 0000.0001)     ;
(PID.TID 0000.0001) eosType =  /* Type of Equation of State */
(PID.TID 0000.0001)               'JMD95Z'
(PID.TID 0000.0001)     ;
(PID.TID 0000.0001) eosRefP0 = /* Reference atmospheric pressure for EOS ( Pa ) */
(PID.TID 0000.0001)                 1.013250000000000E+05
(PID.TID 0000.0001)     ;
(PID.TID 0000.0001) selectP_inEOS_Zc = /* select pressure to use in EOS (0,1,2,3) */
(PID.TID 0000.0001)                       0
(PID.TID 0000.0001)     0= -g*rhoConst*z ; 1= pRef (from tRef,sRef); 2= Hyd P ; 3= Hyd+NH P
(PID.TID 0000.0001)     ;
(PID.TID 0000.0001) surf_pRef = /* Surface reference pressure ( Pa ) */
(PID.TID 0000.0001)                 1.013250000000000E+05
(PID.TID 0000.0001)     ;
(PID.TID 0000.0001) HeatCapacity_Cp =  /* Specific heat capacity ( J/kg/K ) */
(PID.TID 0000.0001)                 3.994000000000000E+03
(PID.TID 0000.0001)     ;
(PID.TID 0000.0001) celsius2K = /* 0 degree Celsius converted to Kelvin ( K ) */
(PID.TID 0000.0001)                 2.731500000000000E+02
(PID.TID 0000.0001)     ;
(PID.TID 0000.0001) rhoConst  = /* Reference density (Boussinesq)  ( kg/m^3 ) */
(PID.TID 0000.0001)                 1.035000000000000E+03
(PID.TID 0000.0001)     ;
(PID.TID 0000.0001) rhoFacC = /* normalized Reference density @ cell-Center (-) */
(PID.TID 0000.0001)    15 @  1.000000000000000E+00              /* K =  1: 15 */
(PID.TID 0000.0001)     ;
(PID.TID 0000.0001) rhoFacF = /* normalized Reference density @ W-Interface (-) */
(PID.TID 0000.0001)    16 @  1.000000000000000E+00              /* K =  1: 16 */
(PID.TID 0000.0001)     ;
(PID.TID 0000.0001) rhoConstFresh = /* Fresh-water reference density ( kg/m^3 ) */
(PID.TID 0000.0001)                 1.035000000000000E+03
(PID.TID 0000.0001)     ;
(PID.TID 0000.0001) gravity =   /* Gravitational acceleration ( m/s^2 ) */
(PID.TID 0000.0001)                 9.810000000000000E+00
(PID.TID 0000.0001)     ;
(PID.TID 0000.0001) gBaro =   /* Barotropic gravity ( m/s^2 ) */
(PID.TID 0000.0001)                 9.810000000000000E+00
(PID.TID 0000.0001)     ;
(PID.TID 0000.0001) gravFacC = /* gravity factor (vs surf.) @ cell-Center (-) */
(PID.TID 0000.0001)    15 @  1.000000000000000E+00              /* K =  1: 15 */
(PID.TID 0000.0001)     ;
(PID.TID 0000.0001) gravFacF = /* gravity factor (vs surf.) @ W-Interface (-) */
(PID.TID 0000.0001)    16 @  1.000000000000000E+00              /* K =  1: 16 */
(PID.TID 0000.0001)     ;
(PID.TID 0000.0001) rotationPeriod =   /* Rotation Period ( s ) */
(PID.TID 0000.0001)                 8.640000000000000E+04
(PID.TID 0000.0001)     ;
(PID.TID 0000.0001) omega =   /* Angular velocity ( rad/s ) */
(PID.TID 0000.0001)                 7.272205216643040E-05
(PID.TID 0000.0001)     ;
(PID.TID 0000.0001) f0 =   /* Reference coriolis parameter ( 1/s ) */
(PID.TID 0000.0001)                 1.000000000000000E-04
(PID.TID 0000.0001)     ;
(PID.TID 0000.0001) beta =   /* Beta ( 1/(m.s) ) */
(PID.TID 0000.0001)                 9.999999999999999E-12
(PID.TID 0000.0001)     ;
(PID.TID 0000.0001) fPrime =   /* Second coriolis parameter ( 1/s ) */
(PID.TID 0000.0001)                 0.000000000000000E+00
(PID.TID 0000.0001)     ;
(PID.TID 0000.0001) rigidLid =   /* Rigid lid on/off flag */
(PID.TID 0000.0001)                   F
(PID.TID 0000.0001)     ;
(PID.TID 0000.0001) implicitFreeSurface =   /* Implicit free surface on/off flag */
(PID.TID 0000.0001)                   T
(PID.TID 0000.0001)     ;
(PID.TID 0000.0001) freeSurfFac =   /* Implicit free surface factor */
(PID.TID 0000.0001)                 1.000000000000000E+00
(PID.TID 0000.0001)     ;
(PID.TID 0000.0001) implicSurfPress =  /* Surface Pressure implicit factor (0-1) */
(PID.TID 0000.0001)                 1.000000000000000E+00
(PID.TID 0000.0001)     ;
(PID.TID 0000.0001) implicDiv2DFlow =  /* Barot. Flow Div. implicit factor (0-1) */
(PID.TID 0000.0001)                 1.000000000000000E+00
(PID.TID 0000.0001)     ;
(PID.TID 0000.0001) uniformLin_PhiSurf = /* use uniform Bo_surf on/off flag */
(PID.TID 0000.0001)                   T
(PID.TID 0000.0001)     ;
(PID.TID 0000.0001) uniformFreeSurfLev = /* free-surface level-index is uniform */
(PID.TID 0000.0001)                   T
(PID.TID 0000.0001)     ;
(PID.TID 0000.0001) sIceLoadFac =  /* scale factor for sIceLoad (0-1) */
(PID.TID 0000.0001)                 1.000000000000000E+00
(PID.TID 0000.0001)     ;
(PID.TID 0000.0001) hFacMin =   /* minimum partial cell factor (hFac) */
(PID.TID 0000.0001)                 5.000000000000000E-02
(PID.TID 0000.0001)     ;
(PID.TID 0000.0001) hFacMinDr = /* minimum partial cell thickness ( m) */
(PID.TID 0000.0001)                 5.000000000000000E+01
(PID.TID 0000.0001)     ;
(PID.TID 0000.0001) exactConserv =  /* Exact Volume Conservation on/off flag */
(PID.TID 0000.0001)                   F
(PID.TID 0000.0001)     ;
(PID.TID 0000.0001) linFSConserveTr = /* Tracer correction for Lin Free Surface on/off flag */
(PID.TID 0000.0001)                   F
(PID.TID 0000.0001)     ;
(PID.TID 0000.0001) nonlinFreeSurf = /* Non-linear Free Surf. options (-1,0,1,2,3)*/
(PID.TID 0000.0001)                       0
(PID.TID 0000.0001)      -1,0= Off ; 1,2,3= On, 2=+rescale gU,gV, 3=+update cg2d solv.
(PID.TID 0000.0001)     ;
(PID.TID 0000.0001) hFacInf =   /* lower threshold for hFac (nonlinFreeSurf only)*/
(PID.TID 0000.0001)                 2.000000000000000E-01
(PID.TID 0000.0001)     ;
(PID.TID 0000.0001) hFacSup =   /* upper threshold for hFac (nonlinFreeSurf only)*/
(PID.TID 0000.0001)                 2.000000000000000E+00
(PID.TID 0000.0001)     ;
(PID.TID 0000.0001) select_rStar = /* r* Vertical coord. options (=0 r coord.; >0 uses r*)*/
(PID.TID 0000.0001)                       0
(PID.TID 0000.0001)     ;
(PID.TID 0000.0001) useRealFreshWaterFlux = /* Real Fresh Water Flux on/off flag*/
(PID.TID 0000.0001)                   T
(PID.TID 0000.0001)     ;
(PID.TID 0000.0001) temp_EvPrRn = /* Temp. of Evap/Prec/R (UNSET=use local T)(oC)*/
(PID.TID 0000.0001)                 1.234567000000000E+05
(PID.TID 0000.0001)     ;
(PID.TID 0000.0001) salt_EvPrRn = /* Salin. of Evap/Prec/R (UNSET=use local S)(g/kg)*/
(PID.TID 0000.0001)                 0.000000000000000E+00
(PID.TID 0000.0001)     ;
(PID.TID 0000.0001) selectAddFluid = /* option for mass source/sink of fluid (=0: off) */
(PID.TID 0000.0001)                       0
(PID.TID 0000.0001)     ;
(PID.TID 0000.0001) temp_addMass = /* Temp. of addMass array (UNSET=use local T)(oC)*/
(PID.TID 0000.0001)                 1.234567000000000E+05
(PID.TID 0000.0001)     ;
(PID.TID 0000.0001) salt_addMass = /* Salin. of addMass array (UNSET=use local S)(g/kg)*/
(PID.TID 0000.0001)                 0.000000000000000E+00
(PID.TID 0000.0001)     ;
(PID.TID 0000.0001) convertFW2Salt = /* convert F.W. Flux to Salt Flux (-1=use local S)(g/kg)*/
(PID.TID 0000.0001)                -1.000000000000000E+00
(PID.TID 0000.0001)     ;
(PID.TID 0000.0001) use3Dsolver = /* use 3-D pressure solver on/off flag */
(PID.TID 0000.0001)                   F
(PID.TID 0000.0001)     ;
(PID.TID 0000.0001) nonHydrostatic =  /* Non-Hydrostatic on/off flag */
(PID.TID 0000.0001)                   F
(PID.TID 0000.0001)     ;
(PID.TID 0000.0001) nh_Am2 = /* Non-Hydrostatic terms scaling factor */
(PID.TID 0000.0001)                 1.000000000000000E+00
(PID.TID 0000.0001)     ;
(PID.TID 0000.0001) implicitNHPress = /* Non-Hyd Pressure implicit factor (0-1)*/
(PID.TID 0000.0001)                 1.000000000000000E+00
(PID.TID 0000.0001)     ;
(PID.TID 0000.0001) selectNHfreeSurf = /* Non-Hyd (free-)Surface option */
(PID.TID 0000.0001)                       0
(PID.TID 0000.0001)     ;
(PID.TID 0000.0001) quasiHydrostatic = /* Quasi-Hydrostatic on/off flag */
(PID.TID 0000.0001)                   F
(PID.TID 0000.0001)     ;
(PID.TID 0000.0001) calc_wVelocity = /* vertical velocity calculation on/off flag */
(PID.TID 0000.0001)                   T
(PID.TID 0000.0001)     ;
(PID.TID 0000.0001) momStepping =  /* Momentum equation on/off flag */
(PID.TID 0000.0001)                   T
(PID.TID 0000.0001)     ;
(PID.TID 0000.0001) vectorInvariantMomentum= /* Vector-Invariant Momentum on/off */
(PID.TID 0000.0001)                   F
(PID.TID 0000.0001)     ;
(PID.TID 0000.0001) momAdvection =  /* Momentum advection on/off flag */
(PID.TID 0000.0001)                   T
(PID.TID 0000.0001)     ;
(PID.TID 0000.0001) momViscosity =  /* Momentum viscosity on/off flag */
(PID.TID 0000.0001)                   T
(PID.TID 0000.0001)     ;
(PID.TID 0000.0001) momImplVertAdv= /* Momentum implicit vert. advection on/off*/
(PID.TID 0000.0001)                   F
(PID.TID 0000.0001)     ;
(PID.TID 0000.0001) implicitViscosity = /* Implicit viscosity on/off flag */
(PID.TID 0000.0001)                   F
(PID.TID 0000.0001)     ;
(PID.TID 0000.0001) selectImplicitDrag= /* Implicit bot Drag options (0,1,2)*/
(PID.TID 0000.0001)                       0
(PID.TID 0000.0001)     0= Expl. ; 1= Impl. on provis. Vel ; 2= Fully Impl (with surf.P)
(PID.TID 0000.0001)     ;
(PID.TID 0000.0001) selectMetricTerms= /* Metric-Terms on/off flag (=0/1) */
(PID.TID 0000.0001)                       1
(PID.TID 0000.0001)     ;
(PID.TID 0000.0001) useNHMTerms = /* Non-Hydrostatic Metric-Terms on/off */
(PID.TID 0000.0001)                   T
(PID.TID 0000.0001)     ;
(PID.TID 0000.0001) selectCoriMap = /* Coriolis Map options (0,1,2,3)*/
(PID.TID 0000.0001)                       2
(PID.TID 0000.0001)     0= f-Plane ; 1= Beta-Plane ; 2= Spherical ; 3= read from file
(PID.TID 0000.0001)     ;
(PID.TID 0000.0001) select3dCoriScheme= /* 3-D Coriolis on/off flag (=0/1) */
(PID.TID 0000.0001)                       0
(PID.TID 0000.0001)     ;
(PID.TID 0000.0001) useCoriolis =  /* Coriolis on/off flag */
(PID.TID 0000.0001)                   T
(PID.TID 0000.0001)     ;
(PID.TID 0000.0001) useCDscheme =  /* CD scheme on/off flag */
(PID.TID 0000.0001)                   T
(PID.TID 0000.0001)     ;
(PID.TID 0000.0001) selectCoriScheme= /* Scheme selector for Coriolis-Term */
(PID.TID 0000.0001)                       0
(PID.TID 0000.0001)    = 0 : original discretization (simple averaging, no hFac)
(PID.TID 0000.0001)    = 1 : Wet-point averaging (Jamar & Ozer 1986)
(PID.TID 0000.0001)    = 2 : energy conserving scheme (no hFac weight)
(PID.TID 0000.0001)    = 3 : energy conserving scheme using Wet-point averaging
(PID.TID 0000.0001)     ;
(PID.TID 0000.0001) momForcing =  /* Momentum forcing on/off flag */
(PID.TID 0000.0001)                   T
(PID.TID 0000.0001)     ;
(PID.TID 0000.0001) momTidalForcing = /* Momentum Tidal forcing on/off flag */
(PID.TID 0000.0001)                   T
(PID.TID 0000.0001)     ;
(PID.TID 0000.0001) momPressureForcing =  /* Momentum pressure term on/off flag */
(PID.TID 0000.0001)                   T
(PID.TID 0000.0001)     ;
(PID.TID 0000.0001) implicitIntGravWave= /* Implicit Internal Gravity Wave flag */
(PID.TID 0000.0001)                   F
(PID.TID 0000.0001)     ;
(PID.TID 0000.0001) staggerTimeStep =    /* Stagger time stepping on/off flag */
(PID.TID 0000.0001)                   F
(PID.TID 0000.0001)     ;
(PID.TID 0000.0001) doResetHFactors = /* reset thickness factors @ each time-step */
(PID.TID 0000.0001)                   F
(PID.TID 0000.0001)     ;
(PID.TID 0000.0001) multiDimAdvection =  /* enable/disable Multi-Dim Advection */
(PID.TID 0000.0001)                   T
(PID.TID 0000.0001)     ;
(PID.TID 0000.0001) useMultiDimAdvec =   /* Multi-Dim Advection is/is-not used */
(PID.TID 0000.0001)                   F
(PID.TID 0000.0001)     ;
(PID.TID 0000.0001) implicitDiffusion = /* Implicit Diffusion on/off flag */
(PID.TID 0000.0001)                   T
(PID.TID 0000.0001)     ;
(PID.TID 0000.0001) tempStepping =  /* Temperature equation on/off flag */
(PID.TID 0000.0001)                   T
(PID.TID 0000.0001)     ;
(PID.TID 0000.0001) tempAdvection = /* Temperature advection on/off flag */
(PID.TID 0000.0001)                   T
(PID.TID 0000.0001)     ;
(PID.TID 0000.0001) tempImplVertAdv = /* Temp. implicit vert. advection on/off */
(PID.TID 0000.0001)                   F
(PID.TID 0000.0001)     ;
[...]
(PID.TID 0000.0001)  S.edge (j=-1,0,1) : proc= 0.0 0.0 0.0, yIn=  -86.000000  -82.000000  -78.000000
(PID.TID 0000.0001)  N.edge (j=+0,+1,+2) proc= 0.0 0.0 0.0, yIn=   78.000000   82.000000   86.000000
(PID.TID 0000.0001) EXF_SET_FLD: field "hflux", it=         0, loading rec=    12
(PID.TID 0000.0001) EXF_SET_FLD:   from file: "ncep_qnet.bin"
(PID.TID 0000.0001)  EXF_INTERP: file="ncep_qnet.bin", rec=    12 , x-Per,P.Sym=    T    T
(PID.TID 0000.0001)  S.edge (j=-1,0,1) : proc= 0.0 0.0 0.0, yIn=  -86.000000  -82.000000  -78.000000
(PID.TID 0000.0001)  N.edge (j=+0,+1,+2) proc= 0.0 0.0 0.0, yIn=   78.000000   82.000000   86.000000
(PID.TID 0000.0001) EXF_SET_FLD: field "hflux", it=         0, loading rec=     1
(PID.TID 0000.0001) EXF_SET_FLD:   from file: "ncep_qnet.bin"
(PID.TID 0000.0001)  EXF_INTERP: file="ncep_qnet.bin", rec=     1 , x-Per,P.Sym=    T    T
(PID.TID 0000.0001)  S.edge (j=-1,0,1) : proc= 0.0 0.0 0.0, yIn=  -86.000000  -82.000000  -78.000000
(PID.TID 0000.0001)  N.edge (j=+0,+1,+2) proc= 0.0 0.0 0.0, yIn=   78.000000   82.000000   86.000000
(PID.TID 0000.0001) SOLVE_FOR_PRESSURE: putPmEinXvector =    F
 cg2d: Sum(rhs),rhsMax =  -2.44249065417534E-15  2.53662338005399E+00
 cg2d: Sum(rhs),rhsMax =   3.93018950717305E-14  5.04305351695056E+00
 cg2d: Sum(rhs),rhsMax =   8.95949980872501E-14  6.28993176697426E+00
 cg2d: Sum(rhs),rhsMax =   9.32587340685131E-14  6.70007851815651E+00
 cg2d: Sum(rhs),rhsMax =   5.86197757002083E-14  6.82703142817575E+00
 cg2d: Sum(rhs),rhsMax =   6.12843109593086E-14  6.85801061115647E+00
 cg2d: Sum(rhs),rhsMax =   6.03961325396085E-14  7.14243567906216E+00
 cg2d: Sum(rhs),rhsMax =   3.73034936274053E-14  7.72291321085958E+00
 cg2d: Sum(rhs),rhsMax =  -7.10542735760100E-14  8.03387012557786E+00
 cg2d: Sum(rhs),rhsMax =  -3.07309733216243E-13  8.11896769039888E+00
 cg2d: Sum(rhs),rhsMax =  -5.11590769747272E-13  8.04727691789449E+00
 cg2d: Sum(rhs),rhsMax =  -8.81072992342524E-13  7.88895758467090E+00
 cg2d: Sum(rhs),rhsMax =  -7.46069872548105E-13  8.31754342229046E+00
 cg2d: Sum(rhs),rhsMax =  -8.56203996590921E-13  8.97048351386325E+00
 cg2d: Sum(rhs),rhsMax =  -7.92255150372512E-13  9.43480018886411E+00
 cg2d: Sum(rhs),rhsMax =  -1.12265752250096E-12  9.69891891619087E+00
 cg2d: Sum(rhs),rhsMax =  -7.53175299905706E-13  9.76269526320694E+00
 cg2d: Sum(rhs),rhsMax =  -8.63309423948522E-13  9.63804566073390E+00
 cg2d: Sum(rhs),rhsMax =  -8.34887714518118E-13  9.34828953977362E+00
 cg2d: Sum(rhs),rhsMax =  -8.59756710269721E-13  9.12167866305936E+00
(PID.TID 0000.0001) Did not write pickup because writePickupAtEnd = FALSE
(PID.TID 0000.0001)   early fc =  0.000000000000000D+00
 --> objf_test(bi,bj)        =  0.219860625530196D+06
 --> objf_test(bi,bj)        =  0.242574454749465D+06
 --> objf_test(bi,bj)        =  0.134254626670572D+06
 --> objf_test(bi,bj)        =  0.202015079384806D+06
(PID.TID 0000.0001)   local fc =  0.798704786335039D+06
(PID.TID 0000.0001)  global fc =  0.798704786335039D+06
(PID.TID 0000.0001) grdchk perturb(-)fc: fcpertminus =  7.98704786335039E+05
grad-res -------------------------------
 grad-res     0    5    8    8    1    1    1    1   7.98704765435E+05  7.98704744545E+05  7.98704786335E+05
 grad-res     0    5    5  208    0    1    1    1  -2.08952615873E-02 -2.08952614339E-02  7.34140725989E-09
(PID.TID 0000.0001)  TLM  ref_cost_function      =  7.98704765435372E+05
(PID.TID 0000.0001)  TLM  tangent-lin_grad       = -2.08952615873075E-02
(PID.TID 0000.0001)  TLM  finite-diff_grad       = -2.08952614339069E-02
(PID.TID 0000.0001) ====== End of gradient-check number   5 (ierr=  0) =======
(PID.TID 0000.0001) 
(PID.TID 0000.0001) // =======================================================
(PID.TID 0000.0001) // Gradient check results  >>> START <<<
(PID.TID 0000.0001) // =======================================================
(PID.TID 0000.0001) 
(PID.TID 0000.0001)  EPS = 1.000000E+00 ; grdchk CTRL var/file name: "xx_qnet"
(PID.TID 0000.0001) 
(PID.TID 0000.0001) grdchk output h.p:  Id Itile Jtile LAYER   bi   bj   X(Id)           X(Id)+/-EPS
(PID.TID 0000.0001) grdchk output h.c:  Id  FC                   FC1                  FC2
(PID.TID 0000.0001) grdchk output h.g:  Id     FC1-FC2/(2*EPS)      TLM GRAD(FC)        1-FDGRD/TLMGRD
(PID.TID 0000.0001) 
(PID.TID 0000.0001) grdchk output (p):   1     4     8     1    1    1   0.000000000E+00 -1.000000000E+00
(PID.TID 0000.0001) grdchk output (c):   1  7.9870476543537E+05  7.9870474548501E+05  7.9870478539420E+05
(PID.TID 0000.0001) grdchk output (g):   1    -1.9954592688009E-02 -1.9954593441573E-02  3.7763948856906E-08
(PID.TID 0000.0001) 
(PID.TID 0000.0001) grdchk output (p):   2     5     8     1    1    1   0.000000000E+00 -1.000000000E+00
(PID.TID 0000.0001) grdchk output (c):   2  7.9870476543537E+05  7.9870474581841E+05  7.9870478506056E+05
(PID.TID 0000.0001) grdchk output (g):   2    -1.9621073210146E-02 -1.9621073100437E-02 -5.5914044505556E-09
(PID.TID 0000.0001) 
(PID.TID 0000.0001) grdchk output (p):   3     6     8     1    1    1   0.000000000E+00 -1.000000000E+00
(PID.TID 0000.0001) grdchk output (c):   3  7.9870476543537E+05  7.9870474578044E+05  7.9870478509862E+05
(PID.TID 0000.0001) grdchk output (g):   3    -1.9659088458866E-02 -1.9659088857382E-02  2.0271336831357E-08
(PID.TID 0000.0001) 
(PID.TID 0000.0001) grdchk output (p):   4     7     8     1    1    1   0.000000000E+00 -1.000000000E+00
(PID.TID 0000.0001) grdchk output (c):   4  7.9870476543537E+05  7.9870474378621E+05  7.9870478709296E+05
(PID.TID 0000.0001) grdchk output (g):   4    -2.1653376752511E-02 -2.1653376832781E-02  3.7070628788882E-09
(PID.TID 0000.0001) 
(PID.TID 0000.0001) grdchk output (p):   5     8     8     1    1    1   0.000000000E+00 -1.000000000E+00
(PID.TID 0000.0001) grdchk output (c):   5  7.9870476543537E+05  7.9870474454452E+05  7.9870478633504E+05
(PID.TID 0000.0001) grdchk output (g):   5    -2.0895261433907E-02 -2.0895261587307E-02  7.3414072598865E-09
(PID.TID 0000.0001) 
(PID.TID 0000.0001) grdchk  summary  :  RMS of    5 ratios =  1.9677120265275E-08
(PID.TID 0000.0001) 
(PID.TID 0000.0001) // =======================================================
(PID.TID 0000.0001) // Gradient check results  >>> END <<<
(PID.TID 0000.0001) // =======================================================
(PID.TID 0000.0001) 
(PID.TID 0000.0001)   Seconds in section "ALL                    [THE_MODEL_MAIN]":
(PID.TID 0000.0001)           User time:   63.589584213914350
(PID.TID 0000.0001)         System time:  0.11113899876363575
(PID.TID 0000.0001)     Wall clock time:   63.914769887924194
(PID.TID 0000.0001)          No. starts:           1
(PID.TID 0000.0001)           No. stops:           1
(PID.TID 0000.0001)   Seconds in section "INITIALISE_FIXED       [THE_MODEL_MAIN]":
(PID.TID 0000.0001)           User time:   6.2973997788503766E-002
(PID.TID 0000.0001)         System time:   1.1615000199526548E-002
(PID.TID 0000.0001)     Wall clock time:   7.5310945510864258E-002
(PID.TID 0000.0001)          No. starts:           1
(PID.TID 0000.0001)           No. stops:           1
(PID.TID 0000.0001)   Seconds in section "CTRL_PACK           [THE_MODEL_MAIN]":
(PID.TID 0000.0001)           User time:   1.2188002467155457E-002
(PID.TID 0000.0001)         System time:   3.0500004068017006E-003
(PID.TID 0000.0001)     Wall clock time:   1.5319108963012695E-002
(PID.TID 0000.0001)          No. starts:           1
(PID.TID 0000.0001)           No. stops:           1
(PID.TID 0000.0001)   Seconds in section "CTRL_PACK     [THE_MODEL_MAIN]":
(PID.TID 0000.0001)           User time:   1.3105995953083038E-002
(PID.TID 0000.0001)         System time:   1.0279994457960129E-003
(PID.TID 0000.0001)     Wall clock time:   1.4194011688232422E-002
(PID.TID 0000.0001)          No. starts:           1
(PID.TID 0000.0001)           No. stops:           1
(PID.TID 0000.0001)   Seconds in section "GRDCHK_MAIN         [THE_MODEL_MAIN]":
(PID.TID 0000.0001)           User time:   63.501286402344704
(PID.TID 0000.0001)         System time:   9.5432998612523079E-002
(PID.TID 0000.0001)     Wall clock time:   63.809911966323853
(PID.TID 0000.0001)          No. starts:           1
(PID.TID 0000.0001)           No. stops:           1
(PID.TID 0000.0001)   Seconds in section "INITIALISE_VARIA    [THE_MAIN_LOOP]":
(PID.TID 0000.0001)           User time:  0.59451498091220856
(PID.TID 0000.0001)         System time:   7.1007004007697105E-002
(PID.TID 0000.0001)     Wall clock time:  0.67815136909484863
(PID.TID 0000.0001)          No. starts:          16
(PID.TID 0000.0001)           No. stops:          16
(PID.TID 0000.0001)   Seconds in section "MAIN LOOP           [THE_MAIN_LOOP]":
(PID.TID 0000.0001)           User time:   62.891401216387749
(PID.TID 0000.0001)         System time:   2.0852994173765182E-002
(PID.TID 0000.0001)     Wall clock time:   63.098314046859741
(PID.TID 0000.0001)          No. starts:          16
(PID.TID 0000.0001)           No. stops:          16
(PID.TID 0000.0001)   Seconds in section "MAIN_DO_LOOP        [THE_MAIN_LOOP]":
(PID.TID 0000.0001)           User time:   62.858253017067909
(PID.TID 0000.0001)         System time:   1.8845988437533379E-002
(PID.TID 0000.0001)     Wall clock time:   63.062639236450195
(PID.TID 0000.0001)          No. starts:         320
(PID.TID 0000.0001)           No. stops:         320
(PID.TID 0000.0001)   Seconds in section "FORWARD_STEP        [MAIN_DO_LOOP]":
(PID.TID 0000.0001)           User time:   62.854604825377464
(PID.TID 0000.0001)         System time:   1.8818981945514679E-002
(PID.TID 0000.0001)     Wall clock time:   63.058997631072998
(PID.TID 0000.0001)          No. starts:         320
(PID.TID 0000.0001)           No. stops:         320
(PID.TID 0000.0001)   Seconds in section "LOAD_FIELDS_DRIVER  [FORWARD_STEP]":
(PID.TID 0000.0001)           User time:  0.83867660164833069
(PID.TID 0000.0001)         System time:   1.3763999566435814E-002
(PID.TID 0000.0001)     Wall clock time:  0.85615944862365723
(PID.TID 0000.0001)          No. starts:         320
(PID.TID 0000.0001)           No. stops:         320
(PID.TID 0000.0001)   Seconds in section "EXF_GETFORCING     [LOAD_FLDS_DRIVER]":
(PID.TID 0000.0001)           User time:  0.65009890496730804
(PID.TID 0000.0001)         System time:   6.1869882047176361E-003
(PID.TID 0000.0001)     Wall clock time:  0.65923762321472168
(PID.TID 0000.0001)          No. starts:         320
(PID.TID 0000.0001)           No. stops:         320
(PID.TID 0000.0001)   Seconds in section "EXTERNAL_FLDS_LOAD [LOAD_FLDS_DRIVER]":
(PID.TID 0000.0001)           User time:   1.9348561763763428E-003
(PID.TID 0000.0001)         System time:   1.9967555999755859E-006
(PID.TID 0000.0001)     Wall clock time:   1.8920898437500000E-003
(PID.TID 0000.0001)          No. starts:         320
(PID.TID 0000.0001)           No. stops:         320
(PID.TID 0000.0001)   Seconds in section "CTRL_MAP_FORCING  [FORWARD_STEP]":
(PID.TID 0000.0001)           User time:  0.56826716661453247
(PID.TID 0000.0001)         System time:   4.0009617805480957E-006
(PID.TID 0000.0001)     Wall clock time:  0.56997275352478027
(PID.TID 0000.0001)          No. starts:         320
(PID.TID 0000.0001)           No. stops:         320
(PID.TID 0000.0001)   Seconds in section "DO_ATMOSPHERIC_PHYS [FORWARD_STEP]":
(PID.TID 0000.0001)           User time:   8.0905973911285400E-002
(PID.TID 0000.0001)         System time:   4.9993395805358887E-006
(PID.TID 0000.0001)     Wall clock time:   8.1234693527221680E-002
(PID.TID 0000.0001)          No. starts:         320
(PID.TID 0000.0001)           No. stops:         320
(PID.TID 0000.0001)   Seconds in section "DO_OCEANIC_PHYS     [FORWARD_STEP]":
(PID.TID 0000.0001)           User time:   10.957146018743515
(PID.TID 0000.0001)         System time:   2.0004808902740479E-006
(PID.TID 0000.0001)     Wall clock time:   10.988020420074463
(PID.TID 0000.0001)          No. starts:         320
(PID.TID 0000.0001)           No. stops:         320
(PID.TID 0000.0001)   Seconds in section "THERMODYNAMICS      [FORWARD_STEP]":
(PID.TID 0000.0001)           User time:   19.213654145598412
(PID.TID 0000.0001)         System time:   2.9659979045391083E-003
(PID.TID 0000.0001)     Wall clock time:   19.271709918975830
(PID.TID 0000.0001)          No. starts:         320
(PID.TID 0000.0001)           No. stops:         320
(PID.TID 0000.0001)   Seconds in section "DYNAMICS            [FORWARD_STEP]":
(PID.TID 0000.0001)           User time:   24.521724373102188
(PID.TID 0000.0001)         System time:   1.9870065152645111E-003
(PID.TID 0000.0001)     Wall clock time:   24.601241350173950
(PID.TID 0000.0001)          No. starts:         320
(PID.TID 0000.0001)           No. stops:         320
(PID.TID 0000.0001)   Seconds in section "SOLVE_FOR_PRESSURE  [FORWARD_STEP]":
(PID.TID 0000.0001)           User time:   3.5055207014083862
(PID.TID 0000.0001)         System time:   2.9951333999633789E-006
(PID.TID 0000.0001)     Wall clock time:   3.5146753787994385
(PID.TID 0000.0001)          No. starts:         320
(PID.TID 0000.0001)           No. stops:         320
(PID.TID 0000.0001)   Seconds in section "MOM_CORRECTION_STEP [FORWARD_STEP]":
(PID.TID 0000.0001)           User time:  0.72696724534034729
(PID.TID 0000.0001)         System time:   2.9951333999633789E-006
(PID.TID 0000.0001)     Wall clock time:  0.72899699211120605
(PID.TID 0000.0001)          No. starts:         320
(PID.TID 0000.0001)           No. stops:         320
(PID.TID 0000.0001)   Seconds in section "INTEGR_CONTINUITY   [FORWARD_STEP]":
(PID.TID 0000.0001)           User time:  0.83017438650131226
(PID.TID 0000.0001)         System time:   1.0021030902862549E-006
(PID.TID 0000.0001)     Wall clock time:  0.83256459236145020
(PID.TID 0000.0001)          No. starts:         320
(PID.TID 0000.0001)           No. stops:         320
(PID.TID 0000.0001)   Seconds in section "TRC_CORRECTION_STEP [FORWARD_STEP]":
(PID.TID 0000.0001)           User time:   1.8814504146575928E-003
(PID.TID 0000.0001)         System time:   0.0000000000000000
(PID.TID 0000.0001)     Wall clock time:   1.8503665924072266E-003
(PID.TID 0000.0001)          No. starts:         320
(PID.TID 0000.0001)           No. stops:         320
(PID.TID 0000.0001)   Seconds in section "BLOCKING_EXCHANGES  [FORWARD_STEP]":
(PID.TID 0000.0001)           User time:  0.57083329558372498
(PID.TID 0000.0001)         System time:   1.8995255231857300E-005
(PID.TID 0000.0001)     Wall clock time:  0.57278966903686523
(PID.TID 0000.0001)          No. starts:         320
(PID.TID 0000.0001)           No. stops:         320
(PID.TID 0000.0001)   Seconds in section "MONITOR             [FORWARD_STEP]":
(PID.TID 0000.0001)           User time:   1.8676817417144775E-003
(PID.TID 0000.0001)         System time:   0.0000000000000000
(PID.TID 0000.0001)     Wall clock time:   1.8894672393798828E-003
(PID.TID 0000.0001)          No. starts:         320
(PID.TID 0000.0001)           No. stops:         320
(PID.TID 0000.0001)   Seconds in section "COST_TILE           [FORWARD_STEP]":
(PID.TID 0000.0001)           User time:   1.0006852149963379
(PID.TID 0000.0001)         System time:   0.0000000000000000
(PID.TID 0000.0001)     Wall clock time:   1.0039734840393066
(PID.TID 0000.0001)          No. starts:         320
(PID.TID 0000.0001)           No. stops:         320
(PID.TID 0000.0001)   Seconds in section "DO_THE_MODEL_IO     [FORWARD_STEP]":
(PID.TID 0000.0001)           User time:   2.0051896572113037E-003
(PID.TID 0000.0001)         System time:   7.0035457611083984E-006
(PID.TID 0000.0001)     Wall clock time:   1.9876956939697266E-003
(PID.TID 0000.0001)          No. starts:         320
(PID.TID 0000.0001)           No. stops:         320
(PID.TID 0000.0001)   Seconds in section "DO_WRITE_PICKUP     [FORWARD_STEP]":
(PID.TID 0000.0001)           User time:   2.1826028823852539E-003
(PID.TID 0000.0001)         System time:   5.9977173805236816E-006
(PID.TID 0000.0001)     Wall clock time:   2.1753311157226562E-003
(PID.TID 0000.0001)          No. starts:         320
(PID.TID 0000.0001)           No. stops:         320
(PID.TID 0000.0001)   Seconds in section "COST_FINAL         [ADJOINT SPIN-DOWN]":
(PID.TID 0000.0001)           User time:   9.3317031860351562E-004
(PID.TID 0000.0001)         System time:   0.0000000000000000
(PID.TID 0000.0001)     Wall clock time:   9.3746185302734375E-004
(PID.TID 0000.0001)          No. starts:          16
(PID.TID 0000.0001)           No. stops:          16
(PID.TID 0000.0001) // ======================================================
(PID.TID 0000.0001) // Tile <-> Tile communication statistics
(PID.TID 0000.0001) // ======================================================
(PID.TID 0000.0001) // o Tile number: 000001
(PID.TID 0000.0001) //         No. X exchanges =              0
(PID.TID 0000.0001) //            Max. X spins =              0
(PID.TID 0000.0001) //            Min. X spins =     1000000000
(PID.TID 0000.0001) //          Total. X spins =              0
(PID.TID 0000.0001) //            Avg. X spins =       0.00E+00
(PID.TID 0000.0001) //         No. Y exchanges =              0
(PID.TID 0000.0001) //            Max. Y spins =              0
(PID.TID 0000.0001) //            Min. Y spins =     1000000000
(PID.TID 0000.0001) //          Total. Y spins =              0
(PID.TID 0000.0001) //            Avg. Y spins =       0.00E+00
(PID.TID 0000.0001) // o Tile number: 000002
(PID.TID 0000.0001) //         No. X exchanges =              0
(PID.TID 0000.0001) //            Max. X spins =              0
(PID.TID 0000.0001) //            Min. X spins =     1000000000
(PID.TID 0000.0001) //          Total. X spins =              0
(PID.TID 0000.0001) //            Avg. X spins =       0.00E+00
(PID.TID 0000.0001) //         No. Y exchanges =              0
(PID.TID 0000.0001) //            Max. Y spins =              0
(PID.TID 0000.0001) //            Min. Y spins =     1000000000
(PID.TID 0000.0001) //          Total. Y spins =              0
(PID.TID 0000.0001) //            Avg. Y spins =       0.00E+00
(PID.TID 0000.0001) // o Tile number: 000003
(PID.TID 0000.0001) //         No. X exchanges =              0
(PID.TID 0000.0001) //            Max. X spins =              0
(PID.TID 0000.0001) //            Min. X spins =     1000000000
(PID.TID 0000.0001) //          Total. X spins =              0
(PID.TID 0000.0001) //            Avg. X spins =       0.00E+00
(PID.TID 0000.0001) //         No. Y exchanges =              0
(PID.TID 0000.0001) //            Max. Y spins =              0
(PID.TID 0000.0001) //            Min. Y spins =     1000000000
(PID.TID 0000.0001) //          Total. Y spins =              0
(PID.TID 0000.0001) //            Avg. Y spins =       0.00E+00
(PID.TID 0000.0001) // o Tile number: 000004
(PID.TID 0000.0001) //         No. X exchanges =              0
(PID.TID 0000.0001) //            Max. X spins =              0
(PID.TID 0000.0001) //            Min. X spins =     1000000000
(PID.TID 0000.0001) //          Total. X spins =              0
(PID.TID 0000.0001) //            Avg. X spins =       0.00E+00
(PID.TID 0000.0001) //         No. Y exchanges =              0
(PID.TID 0000.0001) //            Max. Y spins =              0
(PID.TID 0000.0001) //            Min. Y spins =     1000000000
(PID.TID 0000.0001) //          Total. Y spins =              0
(PID.TID 0000.0001) //            Avg. Y spins =       0.00E+00
(PID.TID 0000.0001) // o Thread number: 000001
(PID.TID 0000.0001) //            No. barriers =          67108
(PID.TID 0000.0001) //      Max. barrier spins =              1
(PID.TID 0000.0001) //      Min. barrier spins =              1
(PID.TID 0000.0001) //     Total barrier spins =          67108
(PID.TID 0000.0001) //      Avg. barrier spins =       1.00E+00
PROGRAM MAIN: Execution ended Normally
