(PID.TID 0000.0001) 
(PID.TID 0000.0001) // ======================================================
(PID.TID 0000.0001) //                      MITgcm UV
(PID.TID 0000.0001) //                      =========
(PID.TID 0000.0001) // ======================================================
(PID.TID 0000.0001) // execution environment starting up...
(PID.TID 0000.0001) // Run starting Wed Apr  1 14:19:48 1998
(PID.TID 0000.0001) // on melville.lcs.mit.edu
(PID.TID 0000.0001) // account cnh
(PID.TID 0000.0001) // MITgcm UV Release: $Name:  $
(PID.TID 0000.0001) 
(PID.TID 0000.0001) // =======================================================
(PID.TID 0000.0001) // Execution Environment parameter file "eedata"
(PID.TID 0000.0001) // =======================================================
(PID.TID 0000.0001) ># Example "eedata" file
(PID.TID 0000.0001) ># Lines beginning "#" are comments
(PID.TID 0000.0001) ># nTx - No. threads per process in X
(PID.TID 0000.0001) ># nTy - No. threads per process in Y
(PID.TID 0000.0001) > &EEPARMS
(PID.TID 0000.0001) > &
(PID.TID 0000.0001) ># Note: Some systems use & as the
(PID.TID 0000.0001) ># namelist terminator. Other systems
(PID.TID 0000.0001) ># use a / character (as shown here).
(PID.TID 0000.0001) 
(PID.TID 0000.0001) // =======================================================
(PID.TID 0000.0001) // Computational Grid Specification ( see files "SIZE.h" )
(PID.TID 0000.0001) //                                  ( and "eedata"       )
(PID.TID 0000.0001) // =======================================================
(PID.TID 0000.0001)      nPx =    1 ; /* No. processes in X */
(PID.TID 0000.0001)      nPy =    1 ; /* No. processes in Y */
(PID.TID 0000.0001)      nSx =    1 ; /* No. tiles in X per process */
(PID.TID 0000.0001)      nSy =    1 ; /* No. tiles in Y per process */
(PID.TID 0000.0001)      sNx =   80 ; /* Tile size in X */
(PID.TID 0000.0001)      sNy =   42 ; /* Tile size in Y */
(PID.TID 0000.0001)      OLx =    3 ; /* Tile overlap distance in X */
(PID.TID 0000.0001)      OLy =    3 ; /* Tile overlap distance in Y */
(PID.TID 0000.0001)      nTx =    1 ; /* No. threads in X per process */
(PID.TID 0000.0001)      nTy =    1 ; /* No. threads in Y per process */
(PID.TID 0000.0001)       Nr =    8 ; /* No. levels in the vertical   */
(PID.TID 0000.0001)       nX =   80 ; /* Total domain size in X ( = nPx*nSx*sNx ) */
(PID.TID 0000.0001)       nY =   42 ; /* Total domain size in Y ( = nPy*nSy*sNy ) */
(PID.TID 0000.0001)   nTiles =    1 ; /* Total no. tiles per process ( = nSx*nSy ) */
(PID.TID 0000.0001)   nProcs =    1 ; /* Total no. processes ( = nPx*nPy ) */
(PID.TID 0000.0001) nThreads =    1 ; /* Total no. threads per process ( = nTx*nTy ) */
(PID.TID 0000.0001) usingMPI =    F ; /* Flag used to control whether MPI is in use */
(PID.TID 0000.0001)                   /*  note: To execute a program with MPI calls */
(PID.TID 0000.0001)                   /*  it must be launched appropriately e.g     */
(PID.TID 0000.0001)                   /*  "mpirun -np 64 ......"                    */
(PID.TID 0000.0001) 
(PID.TID 0000.0001) // ======================================================
(PID.TID 0000.0001) // Mapping of tiles to threads
(PID.TID 0000.0001) // ======================================================
(PID.TID 0000.0001) // -o- Thread   1, tiles (   1:   1,   1:   1)
(PID.TID 0000.0001) 
(PID.TID 0000.0001) // ======================================================
(PID.TID 0000.0001) // Tile <-> Tile connectvity table
(PID.TID 0000.0001) // ======================================================
(PID.TID 0000.0001) // Tile number: 000001 (process no. = 000001)
(PID.TID 0000.0001) //        WEST: Tile = 000001, Process = 000001, Comm = put
(PID.TID 0000.0001) //                bi = 000001, bj = 000001
(PID.TID 0000.0001) //        EAST: Tile = 000001, Process = 000001, Comm = put
(PID.TID 0000.0001) //                bi = 000001, bj = 000001
(PID.TID 0000.0001) //       SOUTH: Tile = 000001, Process = 000001, Comm = put
(PID.TID 0000.0001) //                bi = 000001, bj = 000001
(PID.TID 0000.0001) //       NORTH: Tile = 000001, Process = 000001, Comm = put
(PID.TID 0000.0001) //                bi = 000001, bj = 000001
(PID.TID 0000.0001) 
(PID.TID 0000.0001) // =======================================================
(PID.TID 0000.0001) // Model parameter file "data"
(PID.TID 0000.0001) // =======================================================
(PID.TID 0000.0001) ># ====================
(PID.TID 0000.0001) ># | Model parameters |
(PID.TID 0000.0001) ># ====================
(PID.TID 0000.0001) >#
(PID.TID 0000.0001) ># Continuous equation parameters
(PID.TID 0000.0001) > &PARM01
(PID.TID 0000.0001) > tRef= 0.696834, 0.497738, 0.298643, 0.0995477, -0.0995477, -0.298643, -0.497738, -0.696834,
(PID.TID 0000.0001) > sRef= 8*35.,
(PID.TID 0000.0001) > viscAz=1.E-3,
(PID.TID 0000.0001) > viscAh=1.E3,
(PID.TID 0000.0001) > no_slip_sides=.FALSE.,
(PID.TID 0000.0001) > no_slip_bottom=.FALSE.,
(PID.TID 0000.0001) > viscA4=0.E12,
(PID.TID 0000.0001) > diffKhT=1.E3,
(PID.TID 0000.0001) > diffKzT=1.E-5,
(PID.TID 0000.0001) > diffKhS=1.E3,
(PID.TID 0000.0001) > diffKzS=1.E-5,
(PID.TID 0000.0001) > GMkBackground=0.d3,
(PID.TID 0000.0001) > f0=1.e-4,
(PID.TID 0000.0001) > beta=0.E-11,
(PID.TID 0000.0001) > tAlpha=2.E-4,
(PID.TID 0000.0001) > sBeta =0.E-4,
(PID.TID 0000.0001) > gravity=9.81,
(PID.TID 0000.0001) > gBaro=9.81,
(PID.TID 0000.0001) > rigidLid=.FALSE.,
(PID.TID 0000.0001) > implicitFreeSurface=.TRUE.,
(PID.TID 0000.0001) > eosType='LINEAR',
(PID.TID 0000.0001) > hFacMin=0.2,
(PID.TID 0000.0001) > openBoundaries=.TRUE.,
(PID.TID 0000.0001) > readBinaryPrec=64,
(PID.TID 0000.0001) > &
(PID.TID 0000.0001) >
(PID.TID 0000.0001) ># Elliptic solver parameters
(PID.TID 0000.0001) > &PARM02
(PID.TID 0000.0001) > cg2dMaxIters=1000,
(PID.TID 0000.0001) > cg2dTargetResidual=1.E-13,
(PID.TID 0000.0001) > &
(PID.TID 0000.0001) >
(PID.TID 0000.0001) ># Time stepping parameters
(PID.TID 0000.0001) > &PARM03
(PID.TID 0000.0001) > startTime=0,
(PID.TID 0000.0001) >#endTime=3110400000,
(PID.TID 0000.0001) > endTime=864000.,
(PID.TID 0000.0001) > deltaT=600.0,
(PID.TID 0000.0001) > abEps=0.1,
(PID.TID 0000.0001) > pChkptFreq=0.0,
(PID.TID 0000.0001) > chkptFreq=0.0,
(PID.TID 0000.0001) > dumpFreq=86400.0,
(PID.TID 0000.0001) > &
(PID.TID 0000.0001) >
(PID.TID 0000.0001) ># Gridding parameters
(PID.TID 0000.0001) > &PARM04
(PID.TID 0000.0001) > usingCartesianGrid=.TRUE.,
(PID.TID 0000.0001) > usingSphericalPolarGrid=.FALSE.,
(PID.TID 0000.0001) > delX=80*5.e3,
(PID.TID 0000.0001) > delY=42*5.e3,
(PID.TID 0000.0001) > delZ= 8*562.5,
(PID.TID 0000.0001) > &
(PID.TID 0000.0001) >
(PID.TID 0000.0001) ># Input datasets
(PID.TID 0000.0001) > &PARM05
(PID.TID 0000.0001) > bathyFile='topog.bump',
(PID.TID 0000.0001) > &
(PID.TID 0000.0001) >
(PID.TID 0000.0001) ># Open-boundaries
(PID.TID 0000.0001) > &PARM06
(PID.TID 0000.0001) > OB_Jnorth=80*-1,
(PID.TID 0000.0001) > OB_Jsouth=80*1,
(PID.TID 0000.0001) > OB_Ieast=42*-1,
(PID.TID 0000.0001) > OB_Iwest=42*1,
(PID.TID 0000.0001) > &
(PID.TID 0000.0001) 
 OB Jn =          42          42          42          42          42          42
          42          42          42          42          42          42
          42          42          42          42          42          42
          42          42          42          42          42          42
          42          42          42          42          42          42
          42          42          42          42          42          42
          42          42          42          42          42          42
          42          42          42          42          42          42
          42          42          42          42          42          42
          42          42          42          42          42          42
          42          42          42          42          42          42
          42          42          42          42          42          42
          42          42          42          42          42          42
          42          42
 OB Js =           1           1           1           1           1           1
           1           1           1           1           1           1
           1           1           1           1           1           1
           1           1           1           1           1           1
           1           1           1           1           1           1
           1           1           1           1           1           1
           1           1           1           1           1           1
           1           1           1           1           1           1
           1           1           1           1           1           1
           1           1           1           1           1           1
           1           1           1           1           1           1
           1           1           1           1           1           1
           1           1           1           1           1           1
           1           1
 OB Ie =          80          80          80          80          80          80
          80          80          80          80          80          80
          80          80          80          80          80          80
          80          80          80          80          80          80
          80          80          80          80          80          80
          80          80          80          80          80          80
          80          80          80          80          80          80
 OB Iw =           1           1           1           1           1           1
           1           1           1           1           1           1
           1           1           1           1           1           1
           1           1           1           1           1           1
           1           1           1           1           1           1
           1           1           1           1           1           1
           1           1           1           1           1           1
(PID.TID 0000.0001) // Read file(s) topog.bump*
(PID.TID 0000.0001) // =======================================================
(PID.TID 0000.0001) // Field Model depths at iteration          1
(PID.TID 0000.0001) // CMIN =         -4.500000000000000E+03
(PID.TID 0000.0001) // CMAX =         -4.902981733158690E+02
(PID.TID 0000.0001) // CINT =          1.485074750623752E+02
(PID.TID 0000.0001) // SYMBOLS (CMIN->CMAX): -abcdefghijklmnopqrstuvwxyz+
(PID.TID 0000.0001) //                  0.0: .
(PID.TID 0000.0001) // RANGE I (Lo:Hi:Step):(  -2:  83:   1)
(PID.TID 0000.0001) // RANGE J (Lo:Hi:Step):(  45:  -2:  -1)
(PID.TID 0000.0001) // RANGE K (Lo:Hi:Step):(   1:   1:   1)
(PID.TID 0000.0001) // =======================================================
(PID.TID 0000.0001) K =   1
(PID.TID 0000.0001) //                I=7       I=17      I=27      I=37      I=47      I=57      I=67      I=77
(PID.TID 0000.0001) // |--J--|**0123456|890123456|890123456|890123456|890123456|890123456|890123456|890123456|890123
(PID.TID 0000.0001) //     45 --------------------------------------------------------------------------------------
(PID.TID 0000.0001) //     44 --------------------------------------------------------------------------------------
(PID.TID 0000.0001) //     43 --------------------------------------------------------------------------------------
(PID.TID 0000.0001) //     42 --------------------------------------------------------------------------------------
(PID.TID 0000.0001) //     41 --------------------------------------------------------------------------------------
(PID.TID 0000.0001) //     40 --------------------------------------------------------------------------------------
(PID.TID 0000.0001) //     39 --------------------------------------------------------------------------------------
(PID.TID 0000.0001) //     38 --------------------------------------------------------------------------------------
(PID.TID 0000.0001) //     37 --------------------------------------------------------------------------------------
(PID.TID 0000.0001) //     36 --------------------------------------------------------------------------------------
(PID.TID 0000.0001) //     35 ---------------------------------------aaaaaaaa---------------------------------------
(PID.TID 0000.0001) //     34 ------------------------------------aaaaaaaaaaaaaa------------------------------------
(PID.TID 0000.0001) //     33 -----------------------------------aaaabbbbbbbbaaaa-----------------------------------
(PID.TID 0000.0001) //     32 ----------------------------------aaabbbccccccbbbaaa----------------------------------
(PID.TID 0000.0001) //     31 ---------------------------------aaabbcddddddddcbbaaa---------------------------------
(PID.TID 0000.0001) //     30 --------------------------------aabbcddeffffffeddcbbaa--------------------------------
(PID.TID 0000.0001) //     29 -------------------------------aaabcdefghhiihhgfedcbaaa-------------------------------
(PID.TID 0000.0001) //     28 ------------------------------aaabcdefhijkllkjihfedcbaaa------------------------------
(PID.TID 0000.0001) //     27 ------------------------------aabbdefhjlmnoonmljhfedbbaa------------------------------
(PID.TID 0000.0001) //     26 ------------------------------aabcdfhjlnpqrrqpnljhfdcbaa------------------------------
(PID.TID 0000.0001) //     25 -----------------------------aabbdegilnqstuutsqnligedbbaa-----------------------------
(PID.TID 0000.0001) //     24 -----------------------------aabcdfhjmpsuwxxwuspmjhfdcbaa-----------------------------
(PID.TID 0000.0001) //     23 -----------------------------aabcdfhknqtwyzzywtqnkhfdcbaa-----------------------------
(PID.TID 0000.0001) //     22 -----------------------------aabcdfiloruxz++zxurolifdcbaa-----------------------------
(PID.TID 0000.0001) //     21 -----------------------------aabcdfiloruxz++zxurolifdcbaa-----------------------------
(PID.TID 0000.0001) //     20 -----------------------------aabcdfhknqtwyzzywtqnkhfdcbaa-----------------------------
(PID.TID 0000.0001) //     19 -----------------------------aabcdfhjmpsuwxxwuspmjhfdcbaa-----------------------------
(PID.TID 0000.0001) //     18 -----------------------------aabbdegilnqstuutsqnligedbbaa-----------------------------
(PID.TID 0000.0001) //     17 ------------------------------aabcdfhjlnpqrrqpnljhfdcbaa------------------------------
(PID.TID 0000.0001) //     16 ------------------------------aabbdefhjlmnoonmljhfedbbaa------------------------------
(PID.TID 0000.0001) //     15 ------------------------------aaabcdefhijkllkjihfedcbaaa------------------------------
(PID.TID 0000.0001) //     14 -------------------------------aaabcdefghhiihhgfedcbaaa-------------------------------
(PID.TID 0000.0001) //     13 --------------------------------aabbcddeffffffeddcbbaa--------------------------------
(PID.TID 0000.0001) //     12 ---------------------------------aaabbcddddddddcbbaaa---------------------------------
(PID.TID 0000.0001) //     11 ----------------------------------aaabbbccccccbbbaaa----------------------------------
(PID.TID 0000.0001) //     10 -----------------------------------aaaabbbbbbbbaaaa-----------------------------------
(PID.TID 0000.0001) //      9 ------------------------------------aaaaaaaaaaaaaa------------------------------------
(PID.TID 0000.0001) //      8 ---------------------------------------aaaaaaaa---------------------------------------
(PID.TID 0000.0001) //      7 --------------------------------------------------------------------------------------
(PID.TID 0000.0001) //      6 --------------------------------------------------------------------------------------
(PID.TID 0000.0001) //      5 --------------------------------------------------------------------------------------
(PID.TID 0000.0001) //      4 --------------------------------------------------------------------------------------
(PID.TID 0000.0001) //      3 --------------------------------------------------------------------------------------
(PID.TID 0000.0001) //      2 --------------------------------------------------------------------------------------
(PID.TID 0000.0001) //      1 --------------------------------------------------------------------------------------
(PID.TID 0000.0001) //      0 --------------------------------------------------------------------------------------
(PID.TID 0000.0001) //     -1 --------------------------------------------------------------------------------------
(PID.TID 0000.0001) //     -2 --------------------------------------------------------------------------------------
(PID.TID 0000.0001) // =======================================================
(PID.TID 0000.0001) // END OF FIELD                                          =
(PID.TID 0000.0001) // =======================================================
(PID.TID 0000.0001) 
(PID.TID 0000.0001) // =======================================================
(PID.TID 0000.0001) // Field Model Depths K Index at iteration          1
(PID.TID 0000.0001) // CMIN =          8.716411970059894E-01
(PID.TID 0000.0001) // CMAX =          8.000000000000000E+00
(PID.TID 0000.0001) // CINT =          2.640132889997782E-01
(PID.TID 0000.0001) // SYMBOLS (CMIN->CMAX): -abcdefghijklmnopqrstuvwxyz+
(PID.TID 0000.0001) //                  0.0: .
(PID.TID 0000.0001) // RANGE I (Lo:Hi:Step):(  -2:  83:   1)
(PID.TID 0000.0001) // RANGE J (Lo:Hi:Step):(  45:  -2:  -1)
(PID.TID 0000.0001) // RANGE K (Lo:Hi:Step):(   1:   1:   1)
(PID.TID 0000.0001) // =======================================================
(PID.TID 0000.0001) K =   1
(PID.TID 0000.0001) //                I=7       I=17      I=27      I=37      I=47      I=57      I=67      I=77
(PID.TID 0000.0001) // |--J--|**0123456|890123456|890123456|890123456|890123456|890123456|890123456|890123456|890123
(PID.TID 0000.0001) //     45 ++++++++++++++++++++++++++++++++++++++++++++++++++++++++++++++++++++++++++++++++++++++
(PID.TID 0000.0001) //     44 ++++++++++++++++++++++++++++++++++++++++++++++++++++++++++++++++++++++++++++++++++++++
(PID.TID 0000.0001) //     43 ++++++++++++++++++++++++++++++++++++++++++++++++++++++++++++++++++++++++++++++++++++++
(PID.TID 0000.0001) //     42 ++++++++++++++++++++++++++++++++++++++++++++++++++++++++++++++++++++++++++++++++++++++
(PID.TID 0000.0001) //     41 ++++++++++++++++++++++++++++++++++++++++++++++++++++++++++++++++++++++++++++++++++++++
(PID.TID 0000.0001) //     40 ++++++++++++++++++++++++++++++++++++++++++++++++++++++++++++++++++++++++++++++++++++++
(PID.TID 0000.0001) //     39 ++++++++++++++++++++++++++++++++++++++++++++++++++++++++++++++++++++++++++++++++++++++
(PID.TID 0000.0001) //     38 ++++++++++++++++++++++++++++++++++++++++++++++++++++++++++++++++++++++++++++++++++++++
(PID.TID 0000.0001) //     37 ++++++++++++++++++++++++++++++++++++++++++++++++++++++++++++++++++++++++++++++++++++++
(PID.TID 0000.0001) //     36 ++++++++++++++++++++++++++++++++++++++++++++++++++++++++++++++++++++++++++++++++++++++
(PID.TID 0000.0001) //     35 +++++++++++++++++++++++++++++++++++++++zzzzzzzz+++++++++++++++++++++++++++++++++++++++
(PID.TID 0000.0001) //     34 ++++++++++++++++++++++++++++++++++++zzzzzzzzzzzzzz++++++++++++++++++++++++++++++++++++
(PID.TID 0000.0001) //     33 +++++++++++++++++++++++++++++++++++zzzzyyyyyyyyzzzz+++++++++++++++++++++++++++++++++++
(PID.TID 0000.0001) //     32 ++++++++++++++++++++++++++++++++++zzzyyyxxxxxxyyyzzz++++++++++++++++++++++++++++++++++
(PID.TID 0000.0001) //     31 +++++++++++++++++++++++++++++++++zzzyyxwwwwwwwwxyyzzz+++++++++++++++++++++++++++++++++
(PID.TID 0000.0001) //     30 ++++++++++++++++++++++++++++++++zzyyxwwvuuuuuuvwwxyyzz++++++++++++++++++++++++++++++++
(PID.TID 0000.0001) //     29 +++++++++++++++++++++++++++++++zzzyxwvutssrrsstuvwxyzzz+++++++++++++++++++++++++++++++
(PID.TID 0000.0001) //     28 ++++++++++++++++++++++++++++++zzzyxwvusrqpoopqrsuvwxyzzz++++++++++++++++++++++++++++++
(PID.TID 0000.0001) //     27 ++++++++++++++++++++++++++++++zzyywvusqonmllmnoqsuvwyyzz++++++++++++++++++++++++++++++
(PID.TID 0000.0001) //     26 ++++++++++++++++++++++++++++++zzyxwusqomkjiijkmoqsuwxyzz++++++++++++++++++++++++++++++
(PID.TID 0000.0001) //     25 +++++++++++++++++++++++++++++zzyywvtromjhgffghjmortvwyyzz+++++++++++++++++++++++++++++
(PID.TID 0000.0001) //     24 +++++++++++++++++++++++++++++zzyxwusqnkhfdccdfhknqsuwxyzz+++++++++++++++++++++++++++++
(PID.TID 0000.0001) //     23 +++++++++++++++++++++++++++++zzyxwuspmjgdbaabdgjmpsuwxyzz+++++++++++++++++++++++++++++
(PID.TID 0000.0001) //     22 +++++++++++++++++++++++++++++zzyxwurolifca--acfiloruwxyzz+++++++++++++++++++++++++++++
(PID.TID 0000.0001) //     21 +++++++++++++++++++++++++++++zzyxwurolifca--acfiloruwxyzz+++++++++++++++++++++++++++++
(PID.TID 0000.0001) //     20 +++++++++++++++++++++++++++++zzyxwuspmjgdbaabdgjmpsuwxyzz+++++++++++++++++++++++++++++
(PID.TID 0000.0001) //     19 +++++++++++++++++++++++++++++zzyxwusqnkhfdccdfhknqsuwxyzz+++++++++++++++++++++++++++++
(PID.TID 0000.0001) //     18 +++++++++++++++++++++++++++++zzyywvtromjhgffghjmortvwyyzz+++++++++++++++++++++++++++++
(PID.TID 0000.0001) //     17 ++++++++++++++++++++++++++++++zzyxwusqomkjiijkmoqsuwxyzz++++++++++++++++++++++++++++++
(PID.TID 0000.0001) //     16 ++++++++++++++++++++++++++++++zzyywvusqonmllmnoqsuvwyyzz++++++++++++++++++++++++++++++
(PID.TID 0000.0001) //     15 ++++++++++++++++++++++++++++++zzzyxwvusrqpoopqrsuvwxyzzz++++++++++++++++++++++++++++++
(PID.TID 0000.0001) //     14 +++++++++++++++++++++++++++++++zzzyxwvutssrrsstuvwxyzzz+++++++++++++++++++++++++++++++
(PID.TID 0000.0001) //     13 ++++++++++++++++++++++++++++++++zzyyxwwvuuuuuuvwwxyyzz++++++++++++++++++++++++++++++++
(PID.TID 0000.0001) //     12 +++++++++++++++++++++++++++++++++zzzyyxwwwwwwwwxyyzzz+++++++++++++++++++++++++++++++++
(PID.TID 0000.0001) //     11 ++++++++++++++++++++++++++++++++++zzzyyyxxxxxxyyyzzz++++++++++++++++++++++++++++++++++
(PID.TID 0000.0001) //     10 +++++++++++++++++++++++++++++++++++zzzzyyyyyyyyzzzz+++++++++++++++++++++++++++++++++++
(PID.TID 0000.0001) //      9 ++++++++++++++++++++++++++++++++++++zzzzzzzzzzzzzz++++++++++++++++++++++++++++++++++++
(PID.TID 0000.0001) //      8 +++++++++++++++++++++++++++++++++++++++zzzzzzzz+++++++++++++++++++++++++++++++++++++++
(PID.TID 0000.0001) //      7 ++++++++++++++++++++++++++++++++++++++++++++++++++++++++++++++++++++++++++++++++++++++
(PID.TID 0000.0001) //      6 ++++++++++++++++++++++++++++++++++++++++++++++++++++++++++++++++++++++++++++++++++++++
(PID.TID 0000.0001) //      5 ++++++++++++++++++++++++++++++++++++++++++++++++++++++++++++++++++++++++++++++++++++++
(PID.TID 0000.0001) //      4 ++++++++++++++++++++++++++++++++++++++++++++++++++++++++++++++++++++++++++++++++++++++
(PID.TID 0000.0001) //      3 ++++++++++++++++++++++++++++++++++++++++++++++++++++++++++++++++++++++++++++++++++++++
(PID.TID 0000.0001) //      2 ++++++++++++++++++++++++++++++++++++++++++++++++++++++++++++++++++++++++++++++++++++++
(PID.TID 0000.0001) //      1 ++++++++++++++++++++++++++++++++++++++++++++++++++++++++++++++++++++++++++++++++++++++
(PID.TID 0000.0001) //      0 ++++++++++++++++++++++++++++++++++++++++++++++++++++++++++++++++++++++++++++++++++++++
(PID.TID 0000.0001) //     -1 ++++++++++++++++++++++++++++++++++++++++++++++++++++++++++++++++++++++++++++++++++++++
(PID.TID 0000.0001) //     -2 ++++++++++++++++++++++++++++++++++++++++++++++++++++++++++++++++++++++++++++++++++++++
(PID.TID 0000.0001) // =======================================================
(PID.TID 0000.0001) // END OF FIELD                                          =
(PID.TID 0000.0001) // =======================================================
(PID.TID 0000.0001) 
(PID.TID 0000.0001) // =======================================================
(PID.TID 0000.0001) // Field Initial Temperature at iteration          1
(PID.TID 0000.0001) // CMIN =          6.968340000000000E-01
(PID.TID 0000.0001) // CMAX =          6.968340000000000E-01
(PID.TID 0000.0001) // CINT =          0.000000000000000E+00
(PID.TID 0000.0001) // SYMBOLS (CMIN->CMAX): -abcdefghijklmnopqrstuvwxyz+
(PID.TID 0000.0001) //                  0.0: .
(PID.TID 0000.0001) // RANGE I (Lo:Hi:Step):(   1:  80:   1)
(PID.TID 0000.0001) // RANGE J (Lo:Hi:Step):(  42:   1:  -1)
(PID.TID 0000.0001) // RANGE K (Lo:Hi:Step):(   1:   1:   1)
(PID.TID 0000.0001) // =======================================================
(PID.TID 0000.0001) K =   1
(PID.TID 0000.0001)                I=10      I=20      I=30      I=40      I=50      I=60      I=70      I=80
(PID.TID 0000.0001) |--J--|123456789|123456789|123456789|123456789|123456789|123456789|123456789|123456789|
(PID.TID 0000.0001)     42 --------------------------------------------------------------------------------
(PID.TID 0000.0001)     41 --------------------------------------------------------------------------------
(PID.TID 0000.0001)     40 --------------------------------------------------------------------------------
(PID.TID 0000.0001)     39 --------------------------------------------------------------------------------
(PID.TID 0000.0001)     38 --------------------------------------------------------------------------------
(PID.TID 0000.0001)     37 --------------------------------------------------------------------------------
(PID.TID 0000.0001)     36 --------------------------------------------------------------------------------
(PID.TID 0000.0001)     35 --------------------------------------------------------------------------------
(PID.TID 0000.0001)     34 --------------------------------------------------------------------------------
(PID.TID 0000.0001)     33 --------------------------------------------------------------------------------
(PID.TID 0000.0001)     32 --------------------------------------------------------------------------------
(PID.TID 0000.0001)     31 --------------------------------------------------------------------------------
(PID.TID 0000.0001)     30 --------------------------------------------------------------------------------
(PID.TID 0000.0001)     29 --------------------------------------------------------------------------------
(PID.TID 0000.0001)     28 --------------------------------------------------------------------------------
(PID.TID 0000.0001)     27 --------------------------------------------------------------------------------
(PID.TID 0000.0001)     26 --------------------------------------------------------------------------------
(PID.TID 0000.0001)     25 --------------------------------------------------------------------------------
(PID.TID 0000.0001)     24 --------------------------------------------------------------------------------
(PID.TID 0000.0001)     23 --------------------------------------------------------------------------------
(PID.TID 0000.0001)     22 --------------------------------------------------------------------------------
(PID.TID 0000.0001)     21 --------------------------------------------------------------------------------
(PID.TID 0000.0001)     20 --------------------------------------------------------------------------------
(PID.TID 0000.0001)     19 --------------------------------------------------------------------------------
(PID.TID 0000.0001)     18 --------------------------------------------------------------------------------
(PID.TID 0000.0001)     17 --------------------------------------------------------------------------------
(PID.TID 0000.0001)     16 --------------------------------------------------------------------------------
(PID.TID 0000.0001)     15 --------------------------------------------------------------------------------
(PID.TID 0000.0001)     14 --------------------------------------------------------------------------------
(PID.TID 0000.0001)     13 --------------------------------------------------------------------------------
(PID.TID 0000.0001)     12 --------------------------------------------------------------------------------
(PID.TID 0000.0001)     11 --------------------------------------------------------------------------------
(PID.TID 0000.0001)     10 --------------------------------------------------------------------------------
(PID.TID 0000.0001)      9 --------------------------------------------------------------------------------
(PID.TID 0000.0001)      8 --------------------------------------------------------------------------------
(PID.TID 0000.0001)      7 --------------------------------------------------------------------------------
(PID.TID 0000.0001)      6 --------------------------------------------------------------------------------
(PID.TID 0000.0001)      5 --------------------------------------------------------------------------------
(PID.TID 0000.0001)      4 --------------------------------------------------------------------------------
(PID.TID 0000.0001)      3 --------------------------------------------------------------------------------
(PID.TID 0000.0001)      2 --------------------------------------------------------------------------------
(PID.TID 0000.0001)      1 --------------------------------------------------------------------------------
(PID.TID 0000.0001) // =======================================================
(PID.TID 0000.0001) // END OF FIELD                                          =
(PID.TID 0000.0001) // =======================================================
(PID.TID 0000.0001) 
(PID.TID 0000.0001) // =======================================================
(PID.TID 0000.0001) // Field Initial Salinity at iteration          1
(PID.TID 0000.0001) // CMIN =          3.500000000000000E+01
(PID.TID 0000.0001) // CMAX =          3.500000000000000E+01
(PID.TID 0000.0001) // CINT =          0.000000000000000E+00
(PID.TID 0000.0001) // SYMBOLS (CMIN->CMAX): -abcdefghijklmnopqrstuvwxyz+
(PID.TID 0000.0001) //                  0.0: .
(PID.TID 0000.0001) // RANGE I (Lo:Hi:Step):(   1:  80:   1)
(PID.TID 0000.0001) // RANGE J (Lo:Hi:Step):(  42:   1:  -1)
(PID.TID 0000.0001) // RANGE K (Lo:Hi:Step):(   1:   1:   1)
(PID.TID 0000.0001) // =======================================================
(PID.TID 0000.0001) K =   1
(PID.TID 0000.0001)                I=10      I=20      I=30      I=40      I=50      I=60      I=70      I=80
(PID.TID 0000.0001) |--J--|123456789|123456789|123456789|123456789|123456789|123456789|123456789|123456789|
(PID.TID 0000.0001)     42 --------------------------------------------------------------------------------
(PID.TID 0000.0001)     41 --------------------------------------------------------------------------------
(PID.TID 0000.0001)     40 --------------------------------------------------------------------------------
(PID.TID 0000.0001)     39 --------------------------------------------------------------------------------
(PID.TID 0000.0001)     38 --------------------------------------------------------------------------------
(PID.TID 0000.0001)     37 --------------------------------------------------------------------------------
(PID.TID 0000.0001)     36 --------------------------------------------------------------------------------
(PID.TID 0000.0001)     35 --------------------------------------------------------------------------------
(PID.TID 0000.0001)     34 --------------------------------------------------------------------------------
(PID.TID 0000.0001)     33 --------------------------------------------------------------------------------
(PID.TID 0000.0001)     32 --------------------------------------------------------------------------------
(PID.TID 0000.0001)     31 --------------------------------------------------------------------------------
(PID.TID 0000.0001)     30 --------------------------------------------------------------------------------
(PID.TID 0000.0001)     29 --------------------------------------------------------------------------------
(PID.TID 0000.0001)     28 --------------------------------------------------------------------------------
(PID.TID 0000.0001)     27 --------------------------------------------------------------------------------
(PID.TID 0000.0001)     26 --------------------------------------------------------------------------------
(PID.TID 0000.0001)     25 --------------------------------------------------------------------------------
(PID.TID 0000.0001)     24 --------------------------------------------------------------------------------
(PID.TID 0000.0001)     23 --------------------------------------------------------------------------------
(PID.TID 0000.0001)     22 --------------------------------------------------------------------------------
(PID.TID 0000.0001)     21 --------------------------------------------------------------------------------
(PID.TID 0000.0001)     20 --------------------------------------------------------------------------------
(PID.TID 0000.0001)     19 --------------------------------------------------------------------------------
(PID.TID 0000.0001)     18 --------------------------------------------------------------------------------
(PID.TID 0000.0001)     17 --------------------------------------------------------------------------------
(PID.TID 0000.0001)     16 --------------------------------------------------------------------------------
(PID.TID 0000.0001)     15 --------------------------------------------------------------------------------
(PID.TID 0000.0001)     14 --------------------------------------------------------------------------------
(PID.TID 0000.0001)     13 --------------------------------------------------------------------------------
(PID.TID 0000.0001)     12 --------------------------------------------------------------------------------
(PID.TID 0000.0001)     11 --------------------------------------------------------------------------------
(PID.TID 0000.0001)     10 --------------------------------------------------------------------------------
(PID.TID 0000.0001)      9 --------------------------------------------------------------------------------
(PID.TID 0000.0001)      8 --------------------------------------------------------------------------------
(PID.TID 0000.0001)      7 --------------------------------------------------------------------------------
(PID.TID 0000.0001)      6 --------------------------------------------------------------------------------
(PID.TID 0000.0001)      5 --------------------------------------------------------------------------------
(PID.TID 0000.0001)      4 --------------------------------------------------------------------------------
(PID.TID 0000.0001)      3 --------------------------------------------------------------------------------
(PID.TID 0000.0001)      2 --------------------------------------------------------------------------------
(PID.TID 0000.0001)      1 --------------------------------------------------------------------------------
(PID.TID 0000.0001) // =======================================================
(PID.TID 0000.0001) // END OF FIELD                                          =
(PID.TID 0000.0001) // =======================================================
(PID.TID 0000.0001) 
(PID.TID 0000.0001) // CG2D normalisation factor =          0.2265262204100124723534296E-04
(PID.TID 0000.0001) 
(PID.TID 0000.0001) // =======================================================
(PID.TID 0000.0001) // Field AW2D INI_CG2D.2 at iteration          1
(PID.TID 0000.0001) // CMIN =          1.089551496257487E-01
(PID.TID 0000.0001) // CMAX =          9.999999999999999E-01
(PID.TID 0000.0001) // CINT =          3.300166112497226E-02
(PID.TID 0000.0001) // SYMBOLS (CMIN->CMAX): -abcdefghijklmnopqrstuvwxyz+
(PID.TID 0000.0001) //                  0.0: .
(PID.TID 0000.0001) // RANGE I (Lo:Hi:Step):(  -2:  83:   1)
(PID.TID 0000.0001) // RANGE J (Lo:Hi:Step):(  45:  -2:  -1)
(PID.TID 0000.0001) // RANGE K (Lo:Hi:Step):(   1:   1:   1)
(PID.TID 0000.0001) // =======================================================
(PID.TID 0000.0001) K =   1
(PID.TID 0000.0001) //                I=7       I=17      I=27      I=37      I=47      I=57      I=67      I=77
(PID.TID 0000.0001) // |--J--|**0123456|890123456|890123456|890123456|890123456|890123456|890123456|890123456|890123
(PID.TID 0000.0001) //     45 ++...+++++++++++++++++++++++++++++++++++++++++++++++++++++++++++++++++++++++++++++...+
(PID.TID 0000.0001) //     44 ++...+++++++++++++++++++++++++++++++++++++++++++++++++++++++++++++++++++++++++++++...+
(PID.TID 0000.0001) //     43 ++...+++++++++++++++++++++++++++++++++++++++++++++++++++++++++++++++++++++++++++++...+
(PID.TID 0000.0001) //     42 ++...+++++++++++++++++++++++++++++++++++++++++++++++++++++++++++++++++++++++++++++...+
(PID.TID 0000.0001) //     41 ++...+++++++++++++++++++++++++++++++++++++++++++++++++++++++++++++++++++++++++++++...+
(PID.TID 0000.0001) //     40 ++...+++++++++++++++++++++++++++++++++++++++++++++++++++++++++++++++++++++++++++++...+
(PID.TID 0000.0001) //     39 ++...+++++++++++++++++++++++++++++++++++++++++++++++++++++++++++++++++++++++++++++...+
(PID.TID 0000.0001) //     38 ++...+++++++++++++++++++++++++++++++++++++++++++++++++++++++++++++++++++++++++++++...+
(PID.TID 0000.0001) //     37 ++...+++++++++++++++++++++++++++++++++++++++++++++++++++++++++++++++++++++++++++++...+
(PID.TID 0000.0001) //     36 ++...+++++++++++++++++++++++++++++++++++++++++++++++++++++++++++++++++++++++++++++...+
(PID.TID 0000.0001) //     35 ++...++++++++++++++++++++++++++++++++++zzzzzzzzz++++++++++++++++++++++++++++++++++...+
(PID.TID 0000.0001) //     34 ++...+++++++++++++++++++++++++++++++zzzzzzzzzzzzzzz+++++++++++++++++++++++++++++++...+
(PID.TID 0000.0001) //     33 ++...++++++++++++++++++++++++++++++zzzzyyyyyyyyyzzzz++++++++++++++++++++++++++++++...+
(PID.TID 0000.0001) //     32 ++...+++++++++++++++++++++++++++++zzzyyyxxxxxxxyyyzzz+++++++++++++++++++++++++++++...+
(PID.TID 0000.0001) //     31 ++...++++++++++++++++++++++++++++zzzyyxwwwwwwwwwxyyzzz++++++++++++++++++++++++++++...+
(PID.TID 0000.0001) //     30 ++...+++++++++++++++++++++++++++zzyyxwwvuuuuuuuvwwxyyzz+++++++++++++++++++++++++++...+
(PID.TID 0000.0001) //     29 ++...++++++++++++++++++++++++++zzzyxwvutssrrrsstuvwxyzzz++++++++++++++++++++++++++...+
(PID.TID 0000.0001) //     28 ++...+++++++++++++++++++++++++zzzyxwvusrqpooopqrsuvwxyzzz+++++++++++++++++++++++++...+
(PID.TID 0000.0001) //     27 ++...+++++++++++++++++++++++++zzyywvusqonmlllmnoqsuvwyyzz+++++++++++++++++++++++++...+
(PID.TID 0000.0001) //     26 ++...+++++++++++++++++++++++++zzyxwusqomkjiiijkmoqsuwxyzz+++++++++++++++++++++++++...+
(PID.TID 0000.0001) //     25 ++...++++++++++++++++++++++++zzyywvtromjhgfffghjmortvwyyzz++++++++++++++++++++++++...+
(PID.TID 0000.0001) //     24 ++...++++++++++++++++++++++++zzyxwusqnkhfdcccdfhknqsuwxyzz++++++++++++++++++++++++...+
(PID.TID 0000.0001) //     23 ++...++++++++++++++++++++++++zzyxwuspmjgdbaaabdgjmpsuwxyzz++++++++++++++++++++++++...+
(PID.TID 0000.0001) //     22 ++...++++++++++++++++++++++++zzyxwurolifca---acfiloruwxyzz++++++++++++++++++++++++...+
(PID.TID 0000.0001) //     21 ++...++++++++++++++++++++++++zzyxwurolifca---acfiloruwxyzz++++++++++++++++++++++++...+
(PID.TID 0000.0001) //     20 ++...++++++++++++++++++++++++zzyxwuspmjgdbaaabdgjmpsuwxyzz++++++++++++++++++++++++...+
(PID.TID 0000.0001) //     19 ++...++++++++++++++++++++++++zzyxwusqnkhfdcccdfhknqsuwxyzz++++++++++++++++++++++++...+
(PID.TID 0000.0001) //     18 ++...++++++++++++++++++++++++zzyywvtromjhgfffghjmortvwyyzz++++++++++++++++++++++++...+
(PID.TID 0000.0001) //     17 ++...+++++++++++++++++++++++++zzyxwusqomkjiiijkmoqsuwxyzz+++++++++++++++++++++++++...+
(PID.TID 0000.0001) //     16 ++...+++++++++++++++++++++++++zzyywvusqonmlllmnoqsuvwyyzz+++++++++++++++++++++++++...+
(PID.TID 0000.0001) //     15 ++...+++++++++++++++++++++++++zzzyxwvusrqpooopqrsuvwxyzzz+++++++++++++++++++++++++...+
(PID.TID 0000.0001) //     14 ++...++++++++++++++++++++++++++zzzyxwvutssrrrsstuvwxyzzz++++++++++++++++++++++++++...+
(PID.TID 0000.0001) //     13 ++...+++++++++++++++++++++++++++zzyyxwwvuuuuuuuvwwxyyzz+++++++++++++++++++++++++++...+
(PID.TID 0000.0001) //     12 ++...++++++++++++++++++++++++++++zzzyyxwwwwwwwwwxyyzzz++++++++++++++++++++++++++++...+
(PID.TID 0000.0001) //     11 ++...+++++++++++++++++++++++++++++zzzyyyxxxxxxxyyyzzz+++++++++++++++++++++++++++++...+
(PID.TID 0000.0001) //     10 ++...++++++++++++++++++++++++++++++zzzzyyyyyyyyyzzzz++++++++++++++++++++++++++++++...+
(PID.TID 0000.0001) //      9 ++...+++++++++++++++++++++++++++++++zzzzzzzzzzzzzzz+++++++++++++++++++++++++++++++...+
(PID.TID 0000.0001) //      8 ++...++++++++++++++++++++++++++++++++++zzzzzzzzz++++++++++++++++++++++++++++++++++...+
(PID.TID 0000.0001) //      7 ++...+++++++++++++++++++++++++++++++++++++++++++++++++++++++++++++++++++++++++++++...+
(PID.TID 0000.0001) //      6 ++...+++++++++++++++++++++++++++++++++++++++++++++++++++++++++++++++++++++++++++++...+
(PID.TID 0000.0001) //      5 ++...+++++++++++++++++++++++++++++++++++++++++++++++++++++++++++++++++++++++++++++...+
(PID.TID 0000.0001) //      4 ++...+++++++++++++++++++++++++++++++++++++++++++++++++++++++++++++++++++++++++++++...+
(PID.TID 0000.0001) //      3 ++...+++++++++++++++++++++++++++++++++++++++++++++++++++++++++++++++++++++++++++++...+
(PID.TID 0000.0001) //      2 ++...+++++++++++++++++++++++++++++++++++++++++++++++++++++++++++++++++++++++++++++...+
(PID.TID 0000.0001) //      1 ++...+++++++++++++++++++++++++++++++++++++++++++++++++++++++++++++++++++++++++++++...+
(PID.TID 0000.0001) //      0 ++...+++++++++++++++++++++++++++++++++++++++++++++++++++++++++++++++++++++++++++++...+
(PID.TID 0000.0001) //     -1 ++...+++++++++++++++++++++++++++++++++++++++++++++++++++++++++++++++++++++++++++++...+
(PID.TID 0000.0001) //     -2 ++...+++++++++++++++++++++++++++++++++++++++++++++++++++++++++++++++++++++++++++++...+
(PID.TID 0000.0001) // =======================================================
(PID.TID 0000.0001) // END OF FIELD                                          =
(PID.TID 0000.0001) // =======================================================
(PID.TID 0000.0001) 
(PID.TID 0000.0001) // =======================================================
(PID.TID 0000.0001) // Field AS2D INI_CG2D.2 at iteration          1
(PID.TID 0000.0001) // CMIN =          1.089551496257487E-01
(PID.TID 0000.0001) // CMAX =          1.000000000000000E+00
(PID.TID 0000.0001) // CINT =          3.300166112497227E-02
(PID.TID 0000.0001) // SYMBOLS (CMIN->CMAX): -abcdefghijklmnopqrstuvwxyz+
(PID.TID 0000.0001) //                  0.0: .
(PID.TID 0000.0001) // RANGE I (Lo:Hi:Step):(  -2:  83:   1)
(PID.TID 0000.0001) // RANGE J (Lo:Hi:Step):(  45:  -2:  -1)
(PID.TID 0000.0001) // RANGE K (Lo:Hi:Step):(   1:   1:   1)
(PID.TID 0000.0001) // =======================================================
(PID.TID 0000.0001) K =   1
(PID.TID 0000.0001) //                I=7       I=17      I=27      I=37      I=47      I=57      I=67      I=77
(PID.TID 0000.0001) // |--J--|**0123456|890123456|890123456|890123456|890123456|890123456|890123456|890123456|890123
(PID.TID 0000.0001) //     45 ++++++++++++++++++++++++++++++++++++++++++++++++++++++++++++++++++++++++++++++++++++++
(PID.TID 0000.0001) //     44 ......................................................................................
(PID.TID 0000.0001) //     43 ......................................................................................
(PID.TID 0000.0001) //     42 ......................................................................................
(PID.TID 0000.0001) //     41 ++++++++++++++++++++++++++++++++++++++++++++++++++++++++++++++++++++++++++++++++++++++
(PID.TID 0000.0001) //     40 ++++++++++++++++++++++++++++++++++++++++++++++++++++++++++++++++++++++++++++++++++++++
(PID.TID 0000.0001) //     39 ++++++++++++++++++++++++++++++++++++++++++++++++++++++++++++++++++++++++++++++++++++++
(PID.TID 0000.0001) //     38 ++++++++++++++++++++++++++++++++++++++++++++++++++++++++++++++++++++++++++++++++++++++
(PID.TID 0000.0001) //     37 ++++++++++++++++++++++++++++++++++++++++++++++++++++++++++++++++++++++++++++++++++++++
(PID.TID 0000.0001) //     36 +++++++++++++++++++++++++++++++++++++++zzzzzzzz+++++++++++++++++++++++++++++++++++++++
(PID.TID 0000.0001) //     35 ++++++++++++++++++++++++++++++++++++zzzzzzzzzzzzzz++++++++++++++++++++++++++++++++++++
(PID.TID 0000.0001) //     34 +++++++++++++++++++++++++++++++++++zzzzyyyyyyyyzzzz+++++++++++++++++++++++++++++++++++
(PID.TID 0000.0001) //     33 ++++++++++++++++++++++++++++++++++zzzyyyxxxxxxyyyzzz++++++++++++++++++++++++++++++++++
(PID.TID 0000.0001) //     32 +++++++++++++++++++++++++++++++++zzzyyxwwwwwwwwxyyzzz+++++++++++++++++++++++++++++++++
(PID.TID 0000.0001) //     31 ++++++++++++++++++++++++++++++++zzyyxwwvuuuuuuvwwxyyzz++++++++++++++++++++++++++++++++
(PID.TID 0000.0001) //     30 +++++++++++++++++++++++++++++++zzzyxwvutssrrsstuvwxyzzz+++++++++++++++++++++++++++++++
(PID.TID 0000.0001) //     29 ++++++++++++++++++++++++++++++zzzyxwvusrqpoopqrsuvwxyzzz++++++++++++++++++++++++++++++
(PID.TID 0000.0001) //     28 ++++++++++++++++++++++++++++++zzyywvusqonmllmnoqsuvwyyzz++++++++++++++++++++++++++++++
(PID.TID 0000.0001) //     27 ++++++++++++++++++++++++++++++zzyxwusqomkjiijkmoqsuwxyzz++++++++++++++++++++++++++++++
(PID.TID 0000.0001) //     26 +++++++++++++++++++++++++++++zzyywvtromjhgffghjmortvwyyzz+++++++++++++++++++++++++++++
(PID.TID 0000.0001) //     25 +++++++++++++++++++++++++++++zzyxwusqnkhfdccdfhknqsuwxyzz+++++++++++++++++++++++++++++
(PID.TID 0000.0001) //     24 +++++++++++++++++++++++++++++zzyxwuspmjgdbaabdgjmpsuwxyzz+++++++++++++++++++++++++++++
(PID.TID 0000.0001) //     23 +++++++++++++++++++++++++++++zzyxwurolifca--acfiloruwxyzz+++++++++++++++++++++++++++++
(PID.TID 0000.0001) //     22 +++++++++++++++++++++++++++++zzyxwurolifca--acfiloruwxyzz+++++++++++++++++++++++++++++
(PID.TID 0000.0001) //     21 +++++++++++++++++++++++++++++zzyxwurolifca--acfiloruwxyzz+++++++++++++++++++++++++++++
(PID.TID 0000.0001) //     20 +++++++++++++++++++++++++++++zzyxwuspmjgdbaabdgjmpsuwxyzz+++++++++++++++++++++++++++++
(PID.TID 0000.0001) //     19 +++++++++++++++++++++++++++++zzyxwusqnkhfdccdfhknqsuwxyzz+++++++++++++++++++++++++++++
(PID.TID 0000.0001) //     18 +++++++++++++++++++++++++++++zzyywvtromjhgffghjmortvwyyzz+++++++++++++++++++++++++++++
(PID.TID 0000.0001) //     17 ++++++++++++++++++++++++++++++zzyxwusqomkjiijkmoqsuwxyzz++++++++++++++++++++++++++++++
(PID.TID 0000.0001) //     16 ++++++++++++++++++++++++++++++zzyywvusqonmllmnoqsuvwyyzz++++++++++++++++++++++++++++++
(PID.TID 0000.0001) //     15 ++++++++++++++++++++++++++++++zzzyxwvusrqpoopqrsuvwxyzzz++++++++++++++++++++++++++++++
(PID.TID 0000.0001) //     14 +++++++++++++++++++++++++++++++zzzyxwvutssrrsstuvwxyzzz+++++++++++++++++++++++++++++++
(PID.TID 0000.0001) //     13 ++++++++++++++++++++++++++++++++zzyyxwwvuuuuuuvwwxyyzz++++++++++++++++++++++++++++++++
(PID.TID 0000.0001) //     12 +++++++++++++++++++++++++++++++++zzzyyxwwwwwwwwxyyzzz+++++++++++++++++++++++++++++++++
(PID.TID 0000.0001) //     11 ++++++++++++++++++++++++++++++++++zzzyyyxxxxxxyyyzzz++++++++++++++++++++++++++++++++++
(PID.TID 0000.0001) //     10 +++++++++++++++++++++++++++++++++++zzzzyyyyyyyyzzzz+++++++++++++++++++++++++++++++++++
(PID.TID 0000.0001) //      9 ++++++++++++++++++++++++++++++++++++zzzzzzzzzzzzzz++++++++++++++++++++++++++++++++++++
(PID.TID 0000.0001) //      8 +++++++++++++++++++++++++++++++++++++++zzzzzzzz+++++++++++++++++++++++++++++++++++++++
(PID.TID 0000.0001) //      7 ++++++++++++++++++++++++++++++++++++++++++++++++++++++++++++++++++++++++++++++++++++++
(PID.TID 0000.0001) //      6 ++++++++++++++++++++++++++++++++++++++++++++++++++++++++++++++++++++++++++++++++++++++
(PID.TID 0000.0001) //      5 ++++++++++++++++++++++++++++++++++++++++++++++++++++++++++++++++++++++++++++++++++++++
(PID.TID 0000.0001) //      4 ++++++++++++++++++++++++++++++++++++++++++++++++++++++++++++++++++++++++++++++++++++++
(PID.TID 0000.0001) //      3 ++++++++++++++++++++++++++++++++++++++++++++++++++++++++++++++++++++++++++++++++++++++
(PID.TID 0000.0001) //      2 ......................................................................................
(PID.TID 0000.0001) //      1 ......................................................................................
(PID.TID 0000.0001) //      0 ......................................................................................
(PID.TID 0000.0001) //     -1 ++++++++++++++++++++++++++++++++++++++++++++++++++++++++++++++++++++++++++++++++++++++
(PID.TID 0000.0001) //     -2 ++++++++++++++++++++++++++++++++++++++++++++++++++++++++++++++++++++++++++++++++++++++
(PID.TID 0000.0001) // =======================================================
(PID.TID 0000.0001) // END OF FIELD                                          =
(PID.TID 0000.0001) // =======================================================
(PID.TID 0000.0001) 
(PID.TID 0000.0001) // =======================================================
(PID.TID 0000.0001) // Field pC   INI_CG2D.2 at iteration          1
(PID.TID 0000.0001) // CMIN =         -6.356880000000000E+02
(PID.TID 0000.0001) // CMAX =         -2.499017199789919E-01
(PID.TID 0000.0001) // CINT =          2.353474438074152E+01
(PID.TID 0000.0001) // SYMBOLS (CMIN->CMAX): -abcdefghijklmnopqrstuvwxyz+
(PID.TID 0000.0001) //                  0.0: .
(PID.TID 0000.0001) // RANGE I (Lo:Hi:Step):(  -2:  83:   1)
(PID.TID 0000.0001) // RANGE J (Lo:Hi:Step):(  45:  -2:  -1)
(PID.TID 0000.0001) // RANGE K (Lo:Hi:Step):(   1:   1:   1)
(PID.TID 0000.0001) // =======================================================
(PID.TID 0000.0001) K =   1
(PID.TID 0000.0001) //                I=7       I=17      I=27      I=37      I=47      I=57      I=67      I=77
(PID.TID 0000.0001) // |--J--|**0123456|890123456|890123456|890123456|890123456|890123456|890123456|890123456|890123
(PID.TID 0000.0001) //     45 ++++++++++++++++++++++++++++++++++++++++++++++++++++++++++++++++++++++++++++++++++++++
(PID.TID 0000.0001) //     44 ++++++++++++++++++++++++++++++++++++++++++++++++++++++++++++++++++++++++++++++++++++++
(PID.TID 0000.0001) //     43 ++--++++++++++++++++++++++++++++++++++++++++++++++++++++++++++++++++++++++++++++++--++
(PID.TID 0000.0001) //     42 ++--++++++++++++++++++++++++++++++++++++++++++++++++++++++++++++++++++++++++++++++--++
(PID.TID 0000.0001) //     41 ++++++++++++++++++++++++++++++++++++++++++++++++++++++++++++++++++++++++++++++++++++++
(PID.TID 0000.0001) //     40 ++++++++++++++++++++++++++++++++++++++++++++++++++++++++++++++++++++++++++++++++++++++
(PID.TID 0000.0001) //     39 ++++++++++++++++++++++++++++++++++++++++++++++++++++++++++++++++++++++++++++++++++++++
(PID.TID 0000.0001) //     38 ++++++++++++++++++++++++++++++++++++++++++++++++++++++++++++++++++++++++++++++++++++++
(PID.TID 0000.0001) //     37 ++++++++++++++++++++++++++++++++++++++++++++++++++++++++++++++++++++++++++++++++++++++
(PID.TID 0000.0001) //     36 ++++++++++++++++++++++++++++++++++++++++++++++++++++++++++++++++++++++++++++++++++++++
(PID.TID 0000.0001) //     35 ++++++++++++++++++++++++++++++++++++++++++++++++++++++++++++++++++++++++++++++++++++++
(PID.TID 0000.0001) //     34 ++++++++++++++++++++++++++++++++++++++++++++++++++++++++++++++++++++++++++++++++++++++
(PID.TID 0000.0001) //     33 ++++++++++++++++++++++++++++++++++++++++++++++++++++++++++++++++++++++++++++++++++++++
(PID.TID 0000.0001) //     32 ++++++++++++++++++++++++++++++++++++++++++++++++++++++++++++++++++++++++++++++++++++++
(PID.TID 0000.0001) //     31 ++++++++++++++++++++++++++++++++++++++++++++++++++++++++++++++++++++++++++++++++++++++
(PID.TID 0000.0001) //     30 ++++++++++++++++++++++++++++++++++++++++++++++++++++++++++++++++++++++++++++++++++++++
(PID.TID 0000.0001) //     29 ++++++++++++++++++++++++++++++++++++++++++++++++++++++++++++++++++++++++++++++++++++++
(PID.TID 0000.0001) //     28 ++++++++++++++++++++++++++++++++++++++++++++++++++++++++++++++++++++++++++++++++++++++
(PID.TID 0000.0001) //     27 ++++++++++++++++++++++++++++++++++++++++++++++++++++++++++++++++++++++++++++++++++++++
(PID.TID 0000.0001) //     26 ++++++++++++++++++++++++++++++++++++++++++++++++++++++++++++++++++++++++++++++++++++++
(PID.TID 0000.0001) //     25 ++++++++++++++++++++++++++++++++++++++++++++++++++++++++++++++++++++++++++++++++++++++
(PID.TID 0000.0001) //     24 ++++++++++++++++++++++++++++++++++++++++++++++++++++++++++++++++++++++++++++++++++++++
(PID.TID 0000.0001) //     23 ++++++++++++++++++++++++++++++++++++++++++++++++++++++++++++++++++++++++++++++++++++++
(PID.TID 0000.0001) //     22 ++++++++++++++++++++++++++++++++++++++++++++++++++++++++++++++++++++++++++++++++++++++
(PID.TID 0000.0001) //     21 ++++++++++++++++++++++++++++++++++++++++++++++++++++++++++++++++++++++++++++++++++++++
(PID.TID 0000.0001) //     20 ++++++++++++++++++++++++++++++++++++++++++++++++++++++++++++++++++++++++++++++++++++++
(PID.TID 0000.0001) //     19 ++++++++++++++++++++++++++++++++++++++++++++++++++++++++++++++++++++++++++++++++++++++
(PID.TID 0000.0001) //     18 ++++++++++++++++++++++++++++++++++++++++++++++++++++++++++++++++++++++++++++++++++++++
(PID.TID 0000.0001) //     17 ++++++++++++++++++++++++++++++++++++++++++++++++++++++++++++++++++++++++++++++++++++++
(PID.TID 0000.0001) //     16 ++++++++++++++++++++++++++++++++++++++++++++++++++++++++++++++++++++++++++++++++++++++
(PID.TID 0000.0001) //     15 ++++++++++++++++++++++++++++++++++++++++++++++++++++++++++++++++++++++++++++++++++++++
(PID.TID 0000.0001) //     14 ++++++++++++++++++++++++++++++++++++++++++++++++++++++++++++++++++++++++++++++++++++++
(PID.TID 0000.0001) //     13 ++++++++++++++++++++++++++++++++++++++++++++++++++++++++++++++++++++++++++++++++++++++
(PID.TID 0000.0001) //     12 ++++++++++++++++++++++++++++++++++++++++++++++++++++++++++++++++++++++++++++++++++++++
(PID.TID 0000.0001) //     11 ++++++++++++++++++++++++++++++++++++++++++++++++++++++++++++++++++++++++++++++++++++++
(PID.TID 0000.0001) //     10 ++++++++++++++++++++++++++++++++++++++++++++++++++++++++++++++++++++++++++++++++++++++
(PID.TID 0000.0001) //      9 ++++++++++++++++++++++++++++++++++++++++++++++++++++++++++++++++++++++++++++++++++++++
(PID.TID 0000.0001) //      8 ++++++++++++++++++++++++++++++++++++++++++++++++++++++++++++++++++++++++++++++++++++++
(PID.TID 0000.0001) //      7 ++++++++++++++++++++++++++++++++++++++++++++++++++++++++++++++++++++++++++++++++++++++
(PID.TID 0000.0001) //      6 ++++++++++++++++++++++++++++++++++++++++++++++++++++++++++++++++++++++++++++++++++++++
(PID.TID 0000.0001) //      5 ++++++++++++++++++++++++++++++++++++++++++++++++++++++++++++++++++++++++++++++++++++++
(PID.TID 0000.0001) //      4 ++++++++++++++++++++++++++++++++++++++++++++++++++++++++++++++++++++++++++++++++++++++
(PID.TID 0000.0001) //      3 ++++++++++++++++++++++++++++++++++++++++++++++++++++++++++++++++++++++++++++++++++++++
(PID.TID 0000.0001) //      2 ++++++++++++++++++++++++++++++++++++++++++++++++++++++++++++++++++++++++++++++++++++++
(PID.TID 0000.0001) //      1 ++--++++++++++++++++++++++++++++++++++++++++++++++++++++++++++++++++++++++++++++++--++
(PID.TID 0000.0001) //      0 ++--++++++++++++++++++++++++++++++++++++++++++++++++++++++++++++++++++++++++++++++--++
(PID.TID 0000.0001) //     -1 ++++++++++++++++++++++++++++++++++++++++++++++++++++++++++++++++++++++++++++++++++++++
(PID.TID 0000.0001) //     -2 ++++++++++++++++++++++++++++++++++++++++++++++++++++++++++++++++++++++++++++++++++++++
(PID.TID 0000.0001) // =======================================================
(PID.TID 0000.0001) // END OF FIELD                                          =
(PID.TID 0000.0001) // =======================================================
(PID.TID 0000.0001) 
(PID.TID 0000.0001) // =======================================================
(PID.TID 0000.0001) // Field pW   INI_CG2D.2 at iteration          1
(PID.TID 0000.0001) // CMIN =         -5.473969541915450E-01
(PID.TID 0000.0001) // CMAX =         -6.002582626726127E-02
(PID.TID 0000.0001) // CINT =          1.805078251571421E-02
(PID.TID 0000.0001) // SYMBOLS (CMIN->CMAX): -abcdefghijklmnopqrstuvwxyz+
(PID.TID 0000.0001) //                  0.0: .
(PID.TID 0000.0001) // RANGE I (Lo:Hi:Step):(  -2:  83:   1)
(PID.TID 0000.0001) // RANGE J (Lo:Hi:Step):(  45:  -2:  -1)
(PID.TID 0000.0001) // RANGE K (Lo:Hi:Step):(   1:   1:   1)
(PID.TID 0000.0001) // =======================================================
(PID.TID 0000.0001) K =   1
(PID.TID 0000.0001) //                I=7       I=17      I=27      I=37      I=47      I=57      I=67      I=77
(PID.TID 0000.0001) // |--J--|**0123456|890123456|890123456|890123456|890123456|890123456|890123456|890123456|890123
(PID.TID 0000.0001) //     45 +z...z+++++++++++++++++++++++++++++++++++++++++++++++++++++++++++++++++++++++++++z...z
(PID.TID 0000.0001) //     44 xv...vxxxxxxxxxxxxxxxxxxxxxxxxxxxxxxxxxxxxxxxxxxxxxxxxxxxxxxxxxxxxxxxxxxxxxxxxxxxv...v
(PID.TID 0000.0001) //     43 qg...gqqqqqqqqqqqqqqqqqqqqqqqqqqqqqqqqqqqqqqqqqqqqqqqqqqqqqqqqqqqqqqqqqqqqqqqqqqqg...g
(PID.TID 0000.0001) //     42 qg...gqqqqqqqqqqqqqqqqqqqqqqqqqqqqqqqqqqqqqqqqqqqqqqqqqqqqqqqqqqqqqqqqqqqqqqqqqqqg...g
(PID.TID 0000.0001) //     41 xv...vxxxxxxxxxxxxxxxxxxxxxxxxxxxxxxxxxxxxxxxxxxxxxxxxxxxxxxxxxxxxxxxxxxxxxxxxxxxv...v
(PID.TID 0000.0001) //     40 +z...z+++++++++++++++++++++++++++++++++++++++++++++++++++++++++++++++++++++++++++z...z
(PID.TID 0000.0001) //     39 +z...z+++++++++++++++++++++++++++++++++++++++++++++++++++++++++++++++++++++++++++z...z
(PID.TID 0000.0001) //     38 +z...z+++++++++++++++++++++++++++++++++++++++++++++++++++++++++++++++++++++++++++z...z
(PID.TID 0000.0001) //     37 +z...z+++++++++++++++++++++++++++++++++++++++++++++++++++++++++++++++++++++++++++z...z
(PID.TID 0000.0001) //     36 +z...z+++++++++++++++++++++++++++++++++++++++++++++++++++++++++++++++++++++++++++z...z
(PID.TID 0000.0001) //     35 +z...z+++++++++++++++++++++++++++++++++++++++++++++++++++++++++++++++++++++++++++z...z
(PID.TID 0000.0001) //     34 +z...z+++++++++++++++++++++++++++++++++++++++++++++++++++++++++++++++++++++++++++z...z
(PID.TID 0000.0001) //     33 +z...z+++++++++++++++++++++++++++++++++++++++++++++++++++++++++++++++++++++++++++z...z
(PID.TID 0000.0001) //     32 +z...z+++++++++++++++++++++++++++++++++++++++++++++++++++++++++++++++++++++++++++z...z
(PID.TID 0000.0001) //     31 +z...z++++++++++++++++++++++++++++++++++zzzzzzz++++++++++++++++++++++++++++++++++z...z
(PID.TID 0000.0001) //     30 +z...z++++++++++++++++++++++++++++++++zzzzzzzzzzz++++++++++++++++++++++++++++++++z...z
(PID.TID 0000.0001) //     29 +z...z+++++++++++++++++++++++++++++++zzzzzyyyzzzzz+++++++++++++++++++++++++++++++z...z
(PID.TID 0000.0001) //     28 +z...z++++++++++++++++++++++++++++++zzzyyyyxyyyyzzz++++++++++++++++++++++++++++++z...z
(PID.TID 0000.0001) //     27 +z...z+++++++++++++++++++++++++++++zzzyyxxwwwxxyyzzz+++++++++++++++++++++++++++++z...z
(PID.TID 0000.0001) //     26 +z...z++++++++++++++++++++++++++++zzzyyxwvuuuvwxyyzzz++++++++++++++++++++++++++++z...z
(PID.TID 0000.0001) //     25 +z...z++++++++++++++++++++++++++++zzzyxwvtrqrtvwxyzzz++++++++++++++++++++++++++++z...z
(PID.TID 0000.0001) //     24 +z...z++++++++++++++++++++++++++++zzyyxvtqnlnqtvxyyzz++++++++++++++++++++++++++++z...z
(PID.TID 0000.0001) //     23 +z...z++++++++++++++++++++++++++++zzyxwurnieinruwxyzz++++++++++++++++++++++++++++z...z
(PID.TID 0000.0001) //     22 +z...z++++++++++++++++++++++++++++zzyxwurmg-gmruwxyzz++++++++++++++++++++++++++++z...z
(PID.TID 0000.0001) //     21 +z...z++++++++++++++++++++++++++++zzyxwurmg-gmruwxyzz++++++++++++++++++++++++++++z...z
(PID.TID 0000.0001) //     20 +z...z++++++++++++++++++++++++++++zzyxwurnieinruwxyzz++++++++++++++++++++++++++++z...z
(PID.TID 0000.0001) //     19 +z...z++++++++++++++++++++++++++++zzyyxvtqnlnqtvxyyzz++++++++++++++++++++++++++++z...z
(PID.TID 0000.0001) //     18 +z...z++++++++++++++++++++++++++++zzzyxwvtrqrtvwxyzzz++++++++++++++++++++++++++++z...z
(PID.TID 0000.0001) //     17 +z...z++++++++++++++++++++++++++++zzzyyxwvuuuvwxyyzzz++++++++++++++++++++++++++++z...z
(PID.TID 0000.0001) //     16 +z...z+++++++++++++++++++++++++++++zzzyyxxwwwxxyyzzz+++++++++++++++++++++++++++++z...z
(PID.TID 0000.0001) //     15 +z...z++++++++++++++++++++++++++++++zzzyyyyxyyyyzzz++++++++++++++++++++++++++++++z...z
(PID.TID 0000.0001) //     14 +z...z+++++++++++++++++++++++++++++++zzzzzyyyzzzzz+++++++++++++++++++++++++++++++z...z
(PID.TID 0000.0001) //     13 +z...z++++++++++++++++++++++++++++++++zzzzzzzzzzz++++++++++++++++++++++++++++++++z...z
(PID.TID 0000.0001) //     12 +z...z++++++++++++++++++++++++++++++++++zzzzzzz++++++++++++++++++++++++++++++++++z...z
(PID.TID 0000.0001) //     11 +z...z+++++++++++++++++++++++++++++++++++++++++++++++++++++++++++++++++++++++++++z...z
(PID.TID 0000.0001) //     10 +z...z+++++++++++++++++++++++++++++++++++++++++++++++++++++++++++++++++++++++++++z...z
(PID.TID 0000.0001) //      9 +z...z+++++++++++++++++++++++++++++++++++++++++++++++++++++++++++++++++++++++++++z...z
(PID.TID 0000.0001) //      8 +z...z+++++++++++++++++++++++++++++++++++++++++++++++++++++++++++++++++++++++++++z...z
(PID.TID 0000.0001) //      7 +z...z+++++++++++++++++++++++++++++++++++++++++++++++++++++++++++++++++++++++++++z...z
(PID.TID 0000.0001) //      6 +z...z+++++++++++++++++++++++++++++++++++++++++++++++++++++++++++++++++++++++++++z...z
(PID.TID 0000.0001) //      5 +z...z+++++++++++++++++++++++++++++++++++++++++++++++++++++++++++++++++++++++++++z...z
(PID.TID 0000.0001) //      4 +z...z+++++++++++++++++++++++++++++++++++++++++++++++++++++++++++++++++++++++++++z...z
(PID.TID 0000.0001) //      3 +z...z+++++++++++++++++++++++++++++++++++++++++++++++++++++++++++++++++++++++++++z...z
(PID.TID 0000.0001) //      2 xv...vxxxxxxxxxxxxxxxxxxxxxxxxxxxxxxxxxxxxxxxxxxxxxxxxxxxxxxxxxxxxxxxxxxxxxxxxxxxv...v
(PID.TID 0000.0001) //      1 qg...gqqqqqqqqqqqqqqqqqqqqqqqqqqqqqqqqqqqqqqqqqqqqqqqqqqqqqqqqqqqqqqqqqqqqqqqqqqqg...g
(PID.TID 0000.0001) //      0 qg...gqqqqqqqqqqqqqqqqqqqqqqqqqqqqqqqqqqqqqqqqqqqqqqqqqqqqqqqqqqqqqqqqqqqqqqqqqqqg...g
(PID.TID 0000.0001) //     -1 xv...vxxxxxxxxxxxxxxxxxxxxxxxxxxxxxxxxxxxxxxxxxxxxxxxxxxxxxxxxxxxxxxxxxxxxxxxxxxxv...v
(PID.TID 0000.0001) //     -2 +z...z+++++++++++++++++++++++++++++++++++++++++++++++++++++++++++++++++++++++++++z...z
(PID.TID 0000.0001) // =======================================================
(PID.TID 0000.0001) // END OF FIELD                                          =
(PID.TID 0000.0001) // =======================================================
(PID.TID 0000.0001) 
(PID.TID 0000.0001) // =======================================================
(PID.TID 0000.0001) // Field pS   INI_CG2D.2 at iteration          1
(PID.TID 0000.0001) // CMIN =         -5.473969541915450E-01
(PID.TID 0000.0001) // CMAX =         -6.002582626726116E-02
(PID.TID 0000.0001) // CINT =          1.805078251571422E-02
(PID.TID 0000.0001) // SYMBOLS (CMIN->CMAX): -abcdefghijklmnopqrstuvwxyz+
(PID.TID 0000.0001) //                  0.0: .
(PID.TID 0000.0001) // RANGE I (Lo:Hi:Step):(  -2:  83:   1)
(PID.TID 0000.0001) // RANGE J (Lo:Hi:Step):(  45:  -2:  -1)
(PID.TID 0000.0001) // RANGE K (Lo:Hi:Step):(   1:   1:   1)
(PID.TID 0000.0001) // =======================================================
(PID.TID 0000.0001) K =   1
(PID.TID 0000.0001) //                I=7       I=17      I=27      I=37      I=47      I=57      I=67      I=77
(PID.TID 0000.0001) // |--J--|**0123456|890123456|890123456|890123456|890123456|890123456|890123456|890123456|890123
(PID.TID 0000.0001) //     45 zvggvzzzzzzzzzzzzzzzzzzzzzzzzzzzzzzzzzzzzzzzzzzzzzzzzzzzzzzzzzzzzzzzzzzzzzzzzzzzzvggvz
(PID.TID 0000.0001) //     44 ......................................................................................
(PID.TID 0000.0001) //     43 ......................................................................................
(PID.TID 0000.0001) //     42 ......................................................................................
(PID.TID 0000.0001) //     41 zvggvzzzzzzzzzzzzzzzzzzzzzzzzzzzzzzzzzzzzzzzzzzzzzzzzzzzzzzzzzzzzzzzzzzzzzzzzzzzzvggvz
(PID.TID 0000.0001) //     40 +xqqx++++++++++++++++++++++++++++++++++++++++++++++++++++++++++++++++++++++++++++xqqx+
(PID.TID 0000.0001) //     39 +xqqx++++++++++++++++++++++++++++++++++++++++++++++++++++++++++++++++++++++++++++xqqx+
(PID.TID 0000.0001) //     38 +xqqx++++++++++++++++++++++++++++++++++++++++++++++++++++++++++++++++++++++++++++xqqx+
(PID.TID 0000.0001) //     37 +xqqx++++++++++++++++++++++++++++++++++++++++++++++++++++++++++++++++++++++++++++xqqx+
(PID.TID 0000.0001) //     36 +xqqx++++++++++++++++++++++++++++++++++++++++++++++++++++++++++++++++++++++++++++xqqx+
(PID.TID 0000.0001) //     35 +xqqx++++++++++++++++++++++++++++++++++++++++++++++++++++++++++++++++++++++++++++xqqx+
(PID.TID 0000.0001) //     34 +xqqx++++++++++++++++++++++++++++++++++++++++++++++++++++++++++++++++++++++++++++xqqx+
(PID.TID 0000.0001) //     33 +xqqx++++++++++++++++++++++++++++++++++++++++++++++++++++++++++++++++++++++++++++xqqx+
(PID.TID 0000.0001) //     32 +xqqx++++++++++++++++++++++++++++++++++++++++++++++++++++++++++++++++++++++++++++xqqx+
(PID.TID 0000.0001) //     31 +xqqx+++++++++++++++++++++++++++++++++zzzzzzzzzz+++++++++++++++++++++++++++++++++xqqx+
(PID.TID 0000.0001) //     30 +xqqx++++++++++++++++++++++++++++++++zzzzzzzzzzzz++++++++++++++++++++++++++++++++xqqx+
(PID.TID 0000.0001) //     29 +xqqx+++++++++++++++++++++++++++++++zzzzyyyyyyzzzz+++++++++++++++++++++++++++++++xqqx+
(PID.TID 0000.0001) //     28 +xqqx++++++++++++++++++++++++++++++zzzyyyxxxxyyyzzz++++++++++++++++++++++++++++++xqqx+
(PID.TID 0000.0001) //     27 +xqqx+++++++++++++++++++++++++++++zzzyyxxwwwwxxyyzzz+++++++++++++++++++++++++++++xqqx+
(PID.TID 0000.0001) //     26 +xqqx+++++++++++++++++++++++++++++zzyyxwvuuuuvwxyyzz+++++++++++++++++++++++++++++xqqx+
(PID.TID 0000.0001) //     25 +xqqx++++++++++++++++++++++++++++zzzyxwvtrrrrtvwxyzzz++++++++++++++++++++++++++++xqqx+
(PID.TID 0000.0001) //     24 +xqqx++++++++++++++++++++++++++++zzzyxvtqnmmnqtvxyzzz++++++++++++++++++++++++++++xqqx+
(PID.TID 0000.0001) //     23 +xqqx++++++++++++++++++++++++++++zzyywurnigginruwyyzz++++++++++++++++++++++++++++xqqx+
(PID.TID 0000.0001) //     22 +xqqx++++++++++++++++++++++++++++zzyxwuqle--elquwxyzz++++++++++++++++++++++++++++xqqx+
(PID.TID 0000.0001) //     21 +xqqx++++++++++++++++++++++++++++zzyywurnigginruwyyzz++++++++++++++++++++++++++++xqqx+
(PID.TID 0000.0001) //     20 +xqqx++++++++++++++++++++++++++++zzzyxvtqnmmnqtvxyzzz++++++++++++++++++++++++++++xqqx+
(PID.TID 0000.0001) //     19 +xqqx++++++++++++++++++++++++++++zzzyxwvtrrrrtvwxyzzz++++++++++++++++++++++++++++xqqx+
(PID.TID 0000.0001) //     18 +xqqx+++++++++++++++++++++++++++++zzyyxwvuuuuvwxyyzz+++++++++++++++++++++++++++++xqqx+
(PID.TID 0000.0001) //     17 +xqqx+++++++++++++++++++++++++++++zzzyyxxwwwwxxyyzzz+++++++++++++++++++++++++++++xqqx+
(PID.TID 0000.0001) //     16 +xqqx++++++++++++++++++++++++++++++zzzyyyxxxxyyyzzz++++++++++++++++++++++++++++++xqqx+
(PID.TID 0000.0001) //     15 +xqqx+++++++++++++++++++++++++++++++zzzzyyyyyyzzzz+++++++++++++++++++++++++++++++xqqx+
(PID.TID 0000.0001) //     14 +xqqx++++++++++++++++++++++++++++++++zzzzzzzzzzzz++++++++++++++++++++++++++++++++xqqx+
(PID.TID 0000.0001) //     13 +xqqx+++++++++++++++++++++++++++++++++zzzzzzzzzz+++++++++++++++++++++++++++++++++xqqx+
(PID.TID 0000.0001) //     12 +xqqx++++++++++++++++++++++++++++++++++++++++++++++++++++++++++++++++++++++++++++xqqx+
(PID.TID 0000.0001) //     11 +xqqx++++++++++++++++++++++++++++++++++++++++++++++++++++++++++++++++++++++++++++xqqx+
(PID.TID 0000.0001) //     10 +xqqx++++++++++++++++++++++++++++++++++++++++++++++++++++++++++++++++++++++++++++xqqx+
(PID.TID 0000.0001) //      9 +xqqx++++++++++++++++++++++++++++++++++++++++++++++++++++++++++++++++++++++++++++xqqx+
(PID.TID 0000.0001) //      8 +xqqx++++++++++++++++++++++++++++++++++++++++++++++++++++++++++++++++++++++++++++xqqx+
(PID.TID 0000.0001) //      7 +xqqx++++++++++++++++++++++++++++++++++++++++++++++++++++++++++++++++++++++++++++xqqx+
(PID.TID 0000.0001) //      6 +xqqx++++++++++++++++++++++++++++++++++++++++++++++++++++++++++++++++++++++++++++xqqx+
(PID.TID 0000.0001) //      5 +xqqx++++++++++++++++++++++++++++++++++++++++++++++++++++++++++++++++++++++++++++xqqx+
(PID.TID 0000.0001) //      4 +xqqx++++++++++++++++++++++++++++++++++++++++++++++++++++++++++++++++++++++++++++xqqx+
(PID.TID 0000.0001) //      3 zvggvzzzzzzzzzzzzzzzzzzzzzzzzzzzzzzzzzzzzzzzzzzzzzzzzzzzzzzzzzzzzzzzzzzzzzzzzzzzzvggvz
(PID.TID 0000.0001) //      2 ......................................................................................
(PID.TID 0000.0001) //      1 ......................................................................................
(PID.TID 0000.0001) //      0 ......................................................................................
(PID.TID 0000.0001) //     -1 zvggvzzzzzzzzzzzzzzzzzzzzzzzzzzzzzzzzzzzzzzzzzzzzzzzzzzzzzzzzzzzzzzzzzzzzzzzzzzzzvggvz
(PID.TID 0000.0001) //     -2 +xqqx++++++++++++++++++++++++++++++++++++++++++++++++++++++++++++++++++++++++++++xqqx+
(PID.TID 0000.0001) // =======================================================
(PID.TID 0000.0001) // END OF FIELD                                          =
(PID.TID 0000.0001) // =======================================================
(PID.TID 0000.0001) 
(PID.TID 0000.0001) // =======================================================
(PID.TID 0000.0001) // Model configuration
(PID.TID 0000.0001) // =======================================================
(PID.TID 0000.0001) //
(PID.TID 0000.0001) // "Physical" paramters ( PARM01 in namelist )
(PID.TID 0000.0001) //
(PID.TID 0000.0001) tRef =   /* Reference temperature profile ( oC or oK ) */
(PID.TID 0000.0001)                 6.968340000000000E-01,      /* K =  1 */
(PID.TID 0000.0001)                 4.977380000000000E-01,      /* K =  2 */
(PID.TID 0000.0001)                 2.986430000000000E-01,      /* K =  3 */
(PID.TID 0000.0001)                 9.954770000000000E-02,      /* K =  4 */
(PID.TID 0000.0001)                -9.954770000000000E-02,      /* K =  5 */
(PID.TID 0000.0001)                -2.986430000000000E-01,      /* K =  6 */
(PID.TID 0000.0001)                -4.977380000000000E-01,      /* K =  7 */
(PID.TID 0000.0001)                -6.968340000000000E-01       /* K =  8 */
(PID.TID 0000.0001)     ;
(PID.TID 0000.0001) sRef =   /* Reference salinity profile ( ppt ) */
(PID.TID 0000.0001)     8 @  3.500000000000000E+01              /* K =  1:  8 */
(PID.TID 0000.0001)     ;
(PID.TID 0000.0001) viscAh =   /* Lateral eddy viscosity ( m^2/s ) */
(PID.TID 0000.0001)                 1.000000000000000E+03
(PID.TID 0000.0001)     ;
(PID.TID 0000.0001) viscAh =   /* Lateral biharmonic viscosity ( m^4/s ) */
(PID.TID 0000.0001)                 0.000000000000000E+00
(PID.TID 0000.0001)     ;
(PID.TID 0000.0001) viscAz =   /* Vertical eddy viscosity ( m^2/s ) */
(PID.TID 0000.0001)                 1.000000000000000E-03
(PID.TID 0000.0001)     ;
(PID.TID 0000.0001) viscAr =   /* Vertical eddy viscosity ( units of r^2/s ) */
(PID.TID 0000.0001)                 1.000000000000000E-03
(PID.TID 0000.0001)     ;
(PID.TID 0000.0001) diffKhT =   /* Laplacian diffusion of heat laterally ( m^2/s ) */
(PID.TID 0000.0001)                 1.000000000000000E+03
(PID.TID 0000.0001)     ;
(PID.TID 0000.0001) diffKzT =   /* Laplacian diffusion of heat vertically ( m^2/s ) */
(PID.TID 0000.0001)                 1.000000000000000E-05
(PID.TID 0000.0001)     ;
(PID.TID 0000.0001) diffK4T =   /* Bihaarmonic diffusion of heat laterally ( m^4/s ) */
(PID.TID 0000.0001)                 0.000000000000000E+00
(PID.TID 0000.0001)     ;
(PID.TID 0000.0001) diffKhS =   /* Laplacian diffusion of salt laterally ( m^2/s ) */
(PID.TID 0000.0001)                 1.000000000000000E+03
(PID.TID 0000.0001)     ;
(PID.TID 0000.0001) diffKzS =   /* Laplacian diffusion of salt vertically ( m^2/s ) */
(PID.TID 0000.0001)                 1.000000000000000E-05
(PID.TID 0000.0001)     ;
(PID.TID 0000.0001) diffK4S =   /* Bihaarmonic diffusion of salt laterally ( m^4/s ) */
(PID.TID 0000.0001)                 0.000000000000000E+00
(PID.TID 0000.0001)     ;
(PID.TID 0000.0001) tAlpha =   /* Linear EOS thermal expansion coefficient ( 1/degree ) */
(PID.TID 0000.0001)                 2.000000000000000E-04
(PID.TID 0000.0001)     ;
(PID.TID 0000.0001) sBeta =   /* Linear EOS haline contraction coefficient ( 1/ppt ) */
(PID.TID 0000.0001)                 0.000000000000000E+00
(PID.TID 0000.0001)     ;
(PID.TID 0000.0001) rhonil =   /* Reference density ( kg/m^3 ) */
(PID.TID 0000.0001)                 9.998000000000000E+02
(PID.TID 0000.0001)     ;
(PID.TID 0000.0001) gravity =   /* Gravitational acceleration ( m/s^2 ) */
(PID.TID 0000.0001)                 9.810000000000000E+00
(PID.TID 0000.0001)     ;
(PID.TID 0000.0001) gBaro =   /* Barotropic gravity ( m/s^2 ) */
(PID.TID 0000.0001)                 9.810000000000000E+00
(PID.TID 0000.0001)     ;
(PID.TID 0000.0001) f0 =   /* Reference coriolis parameter ( 1/s ) */
(PID.TID 0000.0001)                 1.000000000000000E-04
(PID.TID 0000.0001)     ;
(PID.TID 0000.0001) beta =   /* Beta ( 1/(m.s) ) */
(PID.TID 0000.0001)                 0.000000000000000E+00
(PID.TID 0000.0001)     ;
(PID.TID 0000.0001) freeSurfFac =   /* Implcit free surface factor */
(PID.TID 0000.0001)                 1.000000000000000E+00
(PID.TID 0000.0001)     ;
(PID.TID 0000.0001) implicitFreeSurface =   /* Implicit free surface on/off flag */
(PID.TID 0000.0001)                   T
(PID.TID 0000.0001)     ;
(PID.TID 0000.0001) rigidLid =   /* Rigid lid on/off flag */
(PID.TID 0000.0001)                   F
(PID.TID 0000.0001)     ;
(PID.TID 0000.0001) momStepping =  /* Momentum equation on/off flag */
(PID.TID 0000.0001)                   T
(PID.TID 0000.0001)     ;
(PID.TID 0000.0001) momAdvection =  /* Momentum advection on/off flag */
(PID.TID 0000.0001)                   T
(PID.TID 0000.0001)     ;
(PID.TID 0000.0001) momViscosity =  /* Momentum viscosity on/off flag */
(PID.TID 0000.0001)                   T
(PID.TID 0000.0001)     ;
(PID.TID 0000.0001) useCoriolis =  /* Coriolis on/off flag */
(PID.TID 0000.0001)                   T
(PID.TID 0000.0001)     ;
(PID.TID 0000.0001) momForcing =  /* Momentum forcing on/off flag */
(PID.TID 0000.0001)                   T
(PID.TID 0000.0001)     ;
(PID.TID 0000.0001) momPressureForcing =  /* Momentum pressure term on/off flag */
(PID.TID 0000.0001)                   T
(PID.TID 0000.0001)     ;
(PID.TID 0000.0001) tempStepping =  /* Temperature equation on/off flag */
(PID.TID 0000.0001)                   T
(PID.TID 0000.0001)     ;
(PID.TID 0000.0001) GMMaxSlope =   /* Max. slope allowed in GM/Redi tensor */
(PID.TID 0000.0001)                 1.000000000000000E-02
(PID.TID 0000.0001)     ;
(PID.TID 0000.0001) GMLength =   /* Length to use in Visbeck et al. formula for K (m) */
(PID.TID 0000.0001)                 2.000000000000000E+05
(PID.TID 0000.0001)     ;
(PID.TID 0000.0001) GMAlpha =   /* alpha to use in Visbeck et al. formula for K */
(PID.TID 0000.0001)                 0.000000000000000E+00
(PID.TID 0000.0001)     ;
(PID.TID 0000.0001) GMdepth =   /* Depth to integrate for Visbeck et. al Richardson # (m) */
(PID.TID 0000.0001)                 1.000000000000000E+03
(PID.TID 0000.0001)     ;
(PID.TID 0000.0001) GMkbackground =   /* background value of GM/Redi coefficient m^2/s */
(PID.TID 0000.0001)                 0.000000000000000E+00
(PID.TID 0000.0001)     ;
(PID.TID 0000.0001) //
(PID.TID 0000.0001) // Elliptic solver(s) paramters ( PARM02 in namelist )
(PID.TID 0000.0001) //
(PID.TID 0000.0001) cg2dMaxIters =   /* Upper limit on 2d con. grad iterations  */
(PID.TID 0000.0001)                    1000
(PID.TID 0000.0001)     ;
(PID.TID 0000.0001) cg2dChkResFreq =   /* 2d con. grad convergence test frequency */
(PID.TID 0000.0001)                       1
(PID.TID 0000.0001)     ;
(PID.TID 0000.0001) cg2dTargetResidual =   /* 2d con. grad target residual  */
(PID.TID 0000.0001)                 1.000000000000000E-13
(PID.TID 0000.0001)     ;
(PID.TID 0000.0001) //
(PID.TID 0000.0001) // Time stepping paramters ( PARM03 in namelist )
(PID.TID 0000.0001) //
(PID.TID 0000.0001) nIter0 =   /* Base timestep number  */
(PID.TID 0000.0001)                       0
(PID.TID 0000.0001)     ;
(PID.TID 0000.0001) nTimeSteps =   /* Number of timesteps */
(PID.TID 0000.0001)                    1440
(PID.TID 0000.0001)     ;
(PID.TID 0000.0001) deltatTmom =   /* Momentum equation timestep ( s ) */
(PID.TID 0000.0001)                 6.000000000000000E+02
(PID.TID 0000.0001)     ;
(PID.TID 0000.0001) deltatTtracer =   /* Tracer equation timestep ( s ) */
(PID.TID 0000.0001)                 6.000000000000000E+02
(PID.TID 0000.0001)     ;
(PID.TID 0000.0001) deltatTClock  =   /* Model clock timestep ( s ) */
(PID.TID 0000.0001)                 6.000000000000000E+02
(PID.TID 0000.0001)     ;
(PID.TID 0000.0001) cAdjFreq =   /* Convective adjustment interval ( s ) */
(PID.TID 0000.0001)                 6.000000000000000E+02
(PID.TID 0000.0001)     ;
(PID.TID 0000.0001) abEps =   /* Adams-Bashforth stabilizing weight */
(PID.TID 0000.0001)                 1.000000000000000E-01
(PID.TID 0000.0001)     ;
(PID.TID 0000.0001) tauCD =   /* CD coupling time-scale ( s ) */
(PID.TID 0000.0001)                 6.000000000000000E+02
(PID.TID 0000.0001)     ;
(PID.TID 0000.0001) rCD =   /* Normalised CD coupling parameter */
(PID.TID 0000.0001)                 0.000000000000000E+00
(PID.TID 0000.0001)     ;
(PID.TID 0000.0001) startTime =   /* Run start time ( s ). */
(PID.TID 0000.0001)                 0.000000000000000E+00
(PID.TID 0000.0001)     ;
(PID.TID 0000.0001) endTime =   /* Integration ending time ( s ). */
(PID.TID 0000.0001)                 8.640000000000000E+05
(PID.TID 0000.0001)     ;
(PID.TID 0000.0001) pChkPtFreq =   /* Permanent restart/checkpoint file interval ( s ). */
(PID.TID 0000.0001)                 0.000000000000000E+00
(PID.TID 0000.0001)     ;
(PID.TID 0000.0001) chkPtFreq =   /* Rolling restart/checkpoint file interval ( s ). */
(PID.TID 0000.0001)                 0.000000000000000E+00
(PID.TID 0000.0001)     ;
(PID.TID 0000.0001) dumpFreq =   /* Model state write out interval ( s ). */
(PID.TID 0000.0001)                 8.640000000000000E+04
(PID.TID 0000.0001)     ;
(PID.TID 0000.0001) //
(PID.TID 0000.0001) // Gridding paramters ( PARM04 in namelist )
(PID.TID 0000.0001) //
(PID.TID 0000.0001) usingCartesianGrid =   /* Cartesian coordinates flag ( True / False ) */
(PID.TID 0000.0001)                   T
(PID.TID 0000.0001)     ;
(PID.TID 0000.0001) usingSphericalPolarGrid =   /* Spherical coordinates flag ( True / False ) */
(PID.TID 0000.0001)                   F
(PID.TID 0000.0001)     ;
(PID.TID 0000.0001) delZ =    /* W spacing ( m ) */
(PID.TID 0000.0001)     8 @  5.625000000000000E+02              /* K =  1:  8 */
(PID.TID 0000.0001)     ;
(PID.TID 0000.0001) delP =    /* W spacing ( Pa ) */
(PID.TID 0000.0001)     8 @  1.234567000000000E+05              /* K =  1:  8 */
(PID.TID 0000.0001)     ;
(PID.TID 0000.0001) delR =    /* W spacing ( units of r ) */
(PID.TID 0000.0001)     8 @  5.625000000000000E+02              /* K =  1:  8 */
(PID.TID 0000.0001)     ;
(PID.TID 0000.0001) delX =    /* U spacing ( m - cartesian, degrees - spherical ) */
(PID.TID 0000.0001)    80 @  5.000000000000000E+03              /* I =  1: 80 */
(PID.TID 0000.0001)     ;
[...]
cg2d: Sum(rhs) =          -2.19881767958216E-12
 CG2D iters, err =      0          1.12908401018650E-03
 CG2D iters, err =    180          8.28943741046011E-14
cg2d: Sum(rhs) =          -2.46198655741241E-12
 CG2D iters, err =      0          1.11280839471610E-03
 CG2D iters, err =    180          8.07209659326611E-14
cg2d: Sum(rhs) =          -2.48220544392754E-12
 CG2D iters, err =      0          1.09668207453772E-03
 CG2D iters, err =    180          7.86142752731183E-14
cg2d: Sum(rhs) =          -2.35507149060608E-12
 CG2D iters, err =      0          1.08074791711304E-03
 CG2D iters, err =    180          7.67204585017841E-14
cg2d: Sum(rhs) =          -2.09369226125623E-12
 CG2D iters, err =      0          1.06504467234145E-03
 CG2D iters, err =    180          7.51701322006218E-14
cg2d: Sum(rhs) =          -1.85850230807728E-12
 CG2D iters, err =      0          1.04960666595636E-03
 CG2D iters, err =    180          7.39918279816616E-14
cg2d: Sum(rhs) =          -1.86533503825971E-12
 CG2D iters, err =      0          1.03446357191185E-03
 CG2D iters, err =    180          7.31147351961723E-14
cg2d: Sum(rhs) =          -1.84963157257804E-12
 CG2D iters, err =      0          1.01964027447736E-03
 CG2D iters, err =    180          7.24137876592637E-14
cg2d: Sum(rhs) =          -2.00735129608992E-12
 CG2D iters, err =      0          1.00515682959006E-03
 CG2D iters, err =    180          7.17401673236942E-14
cg2d: Sum(rhs) =          -1.71177872562906E-12
 CG2D iters, err =      0          9.91028532915938E-04
 CG2D iters, err =    180          7.09218403692795E-14
cg2d: Sum(rhs) =          -2.20181666071829E-12
 CG2D iters, err =      0          9.77266099185025E-04
 CG2D iters, err =    180          6.97596584975116E-14
cg2d: Sum(rhs) =          -1.91805046238086E-12
 CG2D iters, err =      0          9.63875954935752E-04
 CG2D iters, err =    179          9.82354381574348E-14
cg2d: Sum(rhs) =          -2.00490095852253E-12
 CG2D iters, err =      0          9.50860642984263E-04
 CG2D iters, err =    179          9.09868522439316E-14
cg2d: Sum(rhs) =          -2.24476900690653E-12
 CG2D iters, err =      0          9.38219333975892E-04
 CG2D iters, err =    177          8.82695386891408E-14
cg2d: Sum(rhs) =          -2.17358393450281E-12
 CG2D iters, err =      0          9.25948436665419E-04
 CG2D iters, err =    177          7.37147844580549E-14
cg2d: Sum(rhs) =          -2.05924445111907E-12
 CG2D iters, err =      0          9.14042295414693E-04
 CG2D iters, err =    176          9.42569591329985E-14
cg2d: Sum(rhs) =          -1.96137172529896E-12
 CG2D iters, err =      0          9.02493960596547E-04
 CG2D iters, err =    176          7.94636897653993E-14
cg2d: Sum(rhs) =          -2.10911744273341E-12
 CG2D iters, err =      0          8.91296014611094E-04
 CG2D iters, err =    175          9.65113900209895E-14
cg2d: Sum(rhs) =          -1.91495095198642E-12
 CG2D iters, err =      0          8.80441434687615E-04
 CG2D iters, err =    176          8.71252607326302E-14
cg2d: Sum(rhs) =          -1.99193976200759E-12
 CG2D iters, err =      0          8.69924471520646E-04
 CG2D iters, err =    177          6.82500151462982E-14
cg2d: Sum(rhs) =          -1.93906934102149E-12
 CG2D iters, err =      0          8.59741521852374E-04
 CG2D iters, err =    177          8.15276916925498E-14
cg2d: Sum(rhs) =          -1.82528423392546E-12
 CG2D iters, err =      0          8.49891972459225E-04
 CG2D iters, err =    177          9.07714774292162E-14
cg2d: Sum(rhs) =          -1.83265764217878E-12
 CG2D iters, err =      0          8.40378991939455E-04
 CG2D iters, err =    177          9.65036182013366E-14
cg2d: Sum(rhs) =          -1.60636436064791E-12
 CG2D iters, err =      0          8.31210247597197E-04
 CG2D iters, err =    177          9.96721104298643E-14
cg2d: Sum(rhs) =          -1.94620238504130E-12
 CG2D iters, err =      0          8.22398522994988E-04
 CG2D iters, err =    178          8.95102016287537E-14
cg2d: Sum(rhs) =          -1.64091749424986E-12
 CG2D iters, err =      0          8.13962213466648E-04
 CG2D iters, err =    177          9.98510837323977E-14
cg2d: Sum(rhs) =          -1.99357514545952E-12
 CG2D iters, err =      0          8.05925675993440E-04
 CG2D iters, err =    177          9.63343716540725E-14
cg2d: Sum(rhs) =          -2.04127364764419E-12
 CG2D iters, err =      0          7.98319410667968E-04
 CG2D iters, err =    177          8.82882968201648E-14
cg2d: Sum(rhs) =          -1.98806788292614E-12
 CG2D iters, err =      0          7.91180052417968E-04
 CG2D iters, err =    177          7.18396660662989E-14
cg2d: Sum(rhs) =          -1.75257330620616E-12
 CG2D iters, err =      0          7.84550152509636E-04
 CG2D iters, err =    176          9.45043179955137E-14
cg2d: Sum(rhs) =          -1.65075425727292E-12
 CG2D iters, err =      0          7.78477734067195E-04
 CG2D iters, err =    177          7.23938259892268E-14
cg2d: Sum(rhs) =          -1.28936374381092E-12
 CG2D iters, err =      0          7.73015608305117E-04
 CG2D iters, err =    177          9.00344791316052E-14
cg2d: Sum(rhs) =          -1.36816914812462E-12
 CG2D iters, err =      0          7.68220447189138E-04
 CG2D iters, err =    177          9.93443893579148E-14
cg2d: Sum(rhs) =          -1.45051320875832E-12
 CG2D iters, err =      0          7.64151615300665E-04
 CG2D iters, err =    178          8.52651258838165E-14
cg2d: Sum(rhs) =          -1.40260558769150E-12
 CG2D iters, err =      0          7.60869776184620E-04
 CG2D iters, err =    178          8.72429343583511E-14
cg2d: Sum(rhs) =          -1.45636650796758E-12
 CG2D iters, err =      0          7.58435301172580E-04
 CG2D iters, err =    178          8.85282025539451E-14
cg2d: Sum(rhs) =          -1.52552122884421E-12
 CG2D iters, err =      0          7.56906523772206E-04
 CG2D iters, err =    178          8.95086011863888E-14
cg2d: Sum(rhs) =          -1.63748751225699E-12
 CG2D iters, err =      0          7.56337896677343E-04
 CG2D iters, err =    178          9.03459468756985E-14
cg2d: Sum(rhs) =          -1.56232761916366E-12
 CG2D iters, err =      0          7.56778122628518E-04
 CG2D iters, err =    178          9.11066500155888E-14
cg2d: Sum(rhs) =          -1.26872524056185E-12
 CG2D iters, err =      0          7.58268338831135E-04
 CG2D iters, err =    178          9.18265664253124E-14
cg2d: Sum(rhs) =          -1.27192605270865E-12
 CG2D iters, err =      0          7.60840439936618E-04
 CG2D iters, err =    178          9.25543912185799E-14
cg2d: Sum(rhs) =          -9.62298146169830E-13
 CG2D iters, err =      0          7.64515621838027E-04
 CG2D iters, err =    178          9.33722547382679E-14
cg2d: Sum(rhs) =          -9.62445309674086E-13
 CG2D iters, err =      0          7.69303218894300E-04
 CG2D iters, err =    178          9.43689935078730E-14
cg2d: Sum(rhs) =          -1.21651413308122E-12
 CG2D iters, err =      0          7.75199891069796E-04
 CG2D iters, err =    178          9.55718156890867E-14
cg2d: Sum(rhs) =          -1.11875770488477E-12
 CG2D iters, err =      0          7.82189195067888E-04
 CG2D iters, err =    178          9.69088838482393E-14
cg2d: Sum(rhs) =          -1.00301102194883E-12
 CG2D iters, err =      0          7.90241549638400E-04
 CG2D iters, err =    178          9.82493776471732E-14
cg2d: Sum(rhs) =          -1.05500534320507E-12
 CG2D iters, err =      0          7.99314579364337E-04
 CG2D iters, err =    178          9.94658993936618E-14
cg2d: Sum(rhs) =          -1.18846631077000E-12
 CG2D iters, err =      0          8.09353799839445E-04
 CG2D iters, err =    179          8.71216615680650E-14
cg2d: Sum(rhs) =          -1.25594749783076E-12
 CG2D iters, err =      0          8.20293589878095E-04
 CG2D iters, err =    179          8.75712002998913E-14
cg2d: Sum(rhs) =          -1.15074865530084E-12
 CG2D iters, err =      0          8.32058385106206E-04
 CG2D iters, err =    179          8.76721633327867E-14
cg2d: Sum(rhs) =          -1.21569556721726E-12
 CG2D iters, err =      0          8.44564023769856E-04
 CG2D iters, err =    179          8.73878864644518E-14
cg2d: Sum(rhs) =          -1.58744935938233E-12
 CG2D iters, err =      0          8.57719177106884E-04
 CG2D iters, err =    179          8.66845297775894E-14
cg2d: Sum(rhs) =          -1.57066867785592E-12
 CG2D iters, err =      0          8.71426803346107E-04
 CG2D iters, err =    178          9.96761060423114E-14
cg2d: Sum(rhs) =          -1.29834820872992E-12
 CG2D iters, err =      0          8.85585574085891E-04
 CG2D iters, err =    178          9.78383206284145E-14
cg2d: Sum(rhs) =          -1.42240487780148E-12
 CG2D iters, err =      0          9.00091234042017E-04
 CG2D iters, err =    178          9.51467160032979E-14
cg2d: Sum(rhs) =          -1.71134863956790E-12
 CG2D iters, err =      0          9.14837865031473E-04
 CG2D iters, err =    178          9.13094242520421E-14
cg2d: Sum(rhs) =          -1.20394022713483E-12
 CG2D iters, err =      0          9.29719037559444E-04
 CG2D iters, err =    178          8.57791075007606E-14
cg2d: Sum(rhs) =          -1.33080635541464E-12
 CG2D iters, err =      0          9.44628841284130E-04
 CG2D iters, err =    177          9.91659291025268E-14
cg2d: Sum(rhs) =          -1.52827954759123E-12
 CG2D iters, err =      0          9.59462792913198E-04
 CG2D iters, err =    177          8.18194168116832E-14
cg2d: Sum(rhs) =          -1.59418168227919E-12
 CG2D iters, err =      0          9.74118626072192E-04
 CG2D iters, err =    175          8.33988553940106E-14
cg2d: Sum(rhs) =          -1.47066457997129E-12
 CG2D iters, err =      0          9.88496970641487E-04
 CG2D iters, err =    175          6.81435725602872E-14
cg2d: Sum(rhs) =          -1.49611741859278E-12
 CG2D iters, err =      0          1.00250193146766E-03
 CG2D iters, err =    175          7.70410669117702E-14
cg2d: Sum(rhs) =          -1.42062527851996E-12
 CG2D iters, err =      0          1.01604157761520E-03
 CG2D iters, err =    175          9.83653820262845E-14
cg2d: Sum(rhs) =          -1.84825506272359E-12
 CG2D iters, err =      0          1.02902835258744E-03
 CG2D iters, err =    177          8.32575217251754E-14
cg2d: Sum(rhs) =          -1.86628812650822E-12
 CG2D iters, err =      0          1.04137941690434E-03
 CG2D iters, err =    177          8.51336467688985E-14
cg2d: Sum(rhs) =          -1.88072884563652E-12
 CG2D iters, err =      0          1.05301693223431E-03
 CG2D iters, err =    177          8.23900766256768E-14
cg2d: Sum(rhs) =          -1.58271026764068E-12
 CG2D iters, err =      0          1.06386829608097E-03
 CG2D iters, err =    177          7.76977017777716E-14
cg2d: Sum(rhs) =          -1.53600083227599E-12
 CG2D iters, err =      0          1.07386633465488E-03
 CG2D iters, err =    176          9.54492345268998E-14
cg2d: Sum(rhs) =          -2.00472058116234E-12
 CG2D iters, err =      0          1.08294946071401E-03
 CG2D iters, err =    176          9.11494925949515E-14
cg2d: Sum(rhs) =          -1.73242863671787E-12
 CG2D iters, err =      0          1.09106180153209E-03
 CG2D iters, err =    176          8.81783488762587E-14
cg2d: Sum(rhs) =          -1.78416060137715E-12
 CG2D iters, err =      0          1.09815330212495E-03
 CG2D iters, err =    176          8.64744135575193E-14
cg2d: Sum(rhs) =          -2.02668923445859E-12
 CG2D iters, err =      0          1.10417980703129E-03
 CG2D iters, err =    176          8.57432184809503E-14
cg2d: Sum(rhs) =          -2.07354613487127E-12
 CG2D iters, err =      0          1.10910312401104E-03
 CG2D iters, err =    176          8.56675574240885E-14
cg2d: Sum(rhs) =          -2.01365985179141E-12
 CG2D iters, err =      0          1.11289107216682E-03
 CG2D iters, err =    176          8.59847584618153E-14
cg2d: Sum(rhs) =          -1.79307619235314E-12
 CG2D iters, err =      0          1.11551751581637E-03
 CG2D iters, err =    176          8.65267862132806E-14
cg2d: Sum(rhs) =          -1.81680484458852E-12
 CG2D iters, err =      0          1.11696238612827E-03
 CG2D iters, err =    176          8.72348725523249E-14
cg2d: Sum(rhs) =          -1.70082365211080E-12
 CG2D iters, err =      0          1.11721169124645E-03
 CG2D iters, err =    176          8.81556052332483E-14
(PID.TID 0000.0001) // Wrote file(s) uVel.*ckptA
(PID.TID 0000.0001) // Wrote file(s) gU.*ckptA
(PID.TID 0000.0001) // Wrote file(s) gUNm1.*ckptA
(PID.TID 0000.0001) // Wrote file(s) vVel.*ckptA
(PID.TID 0000.0001) // Wrote file(s) gV.*ckptA
(PID.TID 0000.0001) // Wrote file(s) gVNm1.*ckptA
(PID.TID 0000.0001) // Wrote file(s) theta.*ckptA
(PID.TID 0000.0001) // Wrote file(s) gT.*ckptA
(PID.TID 0000.0001) // Wrote file(s) gTNm1.*ckptA
(PID.TID 0000.0001) // Wrote file(s) salt.*ckptA
(PID.TID 0000.0001) // Wrote file(s) gS.*ckptA
(PID.TID 0000.0001) // Wrote file(s) gSNm1.*ckptA
(PID.TID 0000.0001) // Wrote file(s) cg2d_x.*ckptA
(PID.TID 0000.0001) // Model checkpoint written, timestep      1440
(PID.TID 0000.0001) 
(PID.TID 0000.0001) // Wrote file(s) U.*0000001440
(PID.TID 0000.0001) // Wrote file(s) V.*0000001440
(PID.TID 0000.0001) // Wrote file(s) T.*0000001440
(PID.TID 0000.0001) // Wrote file(s) S.*0000001440
(PID.TID 0000.0001) // Wrote file(s) H.*0000001440
(PID.TID 0000.0001) // Model state written, timestep      1440
(PID.TID 0000.0001) 
(PID.TID 0000.0001)  Seconds in section "ALL":
(PID.TID 0000.0001)          User time:   626.000331863761
(PID.TID 0000.0001)        System time:   1.15453796647489
(PID.TID 0000.0001)    Wall clock time:   628.728080987930
(PID.TID 0000.0001)         No. starts:           1
(PID.TID 0000.0001)          No. stops:           1
(PID.TID 0000.0001)  Seconds in section "SPIN-UP":
(PID.TID 0000.0001)          User time:  0.305710986256599
(PID.TID 0000.0001)        System time:  6.080899946391582E-002
(PID.TID 0000.0001)    Wall clock time:  0.404513955116272
(PID.TID 0000.0001)         No. starts:           1
(PID.TID 0000.0001)          No. stops:           1
(PID.TID 0000.0001)  Seconds in section "INITIALISE          [SPIN-UP]":
(PID.TID 0000.0001)          User time:  0.182427003979683
(PID.TID 0000.0001)        System time:  2.998800016939640E-002
(PID.TID 0000.0001)    Wall clock time:  0.212244987487793
(PID.TID 0000.0001)         No. starts:           1
(PID.TID 0000.0001)          No. stops:           1
(PID.TID 0000.0001)  Seconds in section "I/O (WRITE)         [SPIN-UP]":
(PID.TID 0000.0001)          User time:  0.123283982276917
(PID.TID 0000.0001)        System time:  2.998799830675125E-002
(PID.TID 0000.0001)    Wall clock time:  0.192268967628479
(PID.TID 0000.0001)         No. starts:           1
(PID.TID 0000.0001)          No. stops:           1
(PID.TID 0000.0001)  Seconds in section "MAIN LOOP":
(PID.TID 0000.0001)          User time:   624.962443143129
(PID.TID 0000.0001)        System time:  0.963780947029591
(PID.TID 0000.0001)    Wall clock time:   627.010138034821
(PID.TID 0000.0001)         No. starts:           1
(PID.TID 0000.0001)          No. stops:           1
(PID.TID 0000.0001)  Seconds in section "I/O (READ)         [MAIN LOOP]":
(PID.TID 0000.0001)          User time:  4.323956370353699E-002
(PID.TID 0000.0001)        System time:  1.166208088397980E-002
(PID.TID 0000.0001)    Wall clock time:  4.165089130401611E-002
(PID.TID 0000.0001)         No. starts:        1440
(PID.TID 0000.0001)          No. stops:        1440
(PID.TID 0000.0001)  Seconds in section "OBCS               [MAIN LOOP]":
(PID.TID 0000.0001)          User time:  0.382392585277557
(PID.TID 0000.0001)        System time:  9.995937347412109E-003
(PID.TID 0000.0001)    Wall clock time:  0.399125337600708
(PID.TID 0000.0001)         No. starts:        1440
(PID.TID 0000.0001)          No. stops:        1440
(PID.TID 0000.0001)  Seconds in section "DYNAMICS           [MAIN LOOP]":
(PID.TID 0000.0001)          User time:   367.492970705032
(PID.TID 0000.0001)        System time:  0.242403440177441
(PID.TID 0000.0001)    Wall clock time:   367.822490572929
(PID.TID 0000.0001)         No. starts:        1440
(PID.TID 0000.0001)          No. stops:        1440
(PID.TID 0000.0001)  Seconds in section "I/O (WRITE)        [MAIN LOOP]":
(PID.TID 0000.0001)          User time:   1.52265870571136
(PID.TID 0000.0001)        System time:  0.403172120451927
(PID.TID 0000.0001)    Wall clock time:   2.89942705631256
(PID.TID 0000.0001)         No. starts:        4320
(PID.TID 0000.0001)          No. stops:        4320
(PID.TID 0000.0001)  Seconds in section "SOLVE_FOR_PRESSURE [MAIN LOOP]":
(PID.TID 0000.0001)          User time:   250.239342153072
(PID.TID 0000.0001)        System time:  0.171597883105278
(PID.TID 0000.0001)    Wall clock time:   250.484491229057
(PID.TID 0000.0001)         No. starts:        1440
(PID.TID 0000.0001)          No. stops:        1440
(PID.TID 0000.0001)  Seconds in section "BLOCKING_EXCHANGES [MAIN LOOP]":
(PID.TID 0000.0001)          User time:   5.02485185861588
(PID.TID 0000.0001)        System time:  2.498982846736908E-002
(PID.TID 0000.0001)    Wall clock time:   5.07296061515808
(PID.TID 0000.0001)         No. starts:        1440
(PID.TID 0000.0001)          No. stops:        1440
(PID.TID 0000.0001)  Seconds in section "SPIN-DOWN":
(PID.TID 0000.0001)          User time:  0.732177734375000
(PID.TID 0000.0001)        System time:  0.129948019981384
(PID.TID 0000.0001)    Wall clock time:   1.31342899799347
(PID.TID 0000.0001)         No. starts:           1
(PID.TID 0000.0001)          No. stops:           1
(PID.TID 0000.0001)  Seconds in section "I/O (WRITE)         [SPIN-DOWN]":
(PID.TID 0000.0001)          User time:  0.478942871093750
(PID.TID 0000.0001)        System time:  0.129948019981384
(PID.TID 0000.0001)    Wall clock time:   1.06019198894501
(PID.TID 0000.0001)         No. starts:           2
(PID.TID 0000.0001)          No. stops:           2
(PID.TID 0000.0001)  Seconds in section "OBCS               [SPIN_DOWN]":
(PID.TID 0000.0001)          User time:  0.000000000000000E+000
(PID.TID 0000.0001)        System time:  0.000000000000000E+000
(PID.TID 0000.0001)    Wall clock time:  8.330345153808594E-004
(PID.TID 0000.0001)         No. starts:           1
(PID.TID 0000.0001)          No. stops:           1
(PID.TID 0000.0001)  Seconds in section "DYNAMICS            [SPIN-DOWN]":
(PID.TID 0000.0001)          User time:  0.252380371093750
(PID.TID 0000.0001)        System time:  0.000000000000000E+000
(PID.TID 0000.0001)    Wall clock time:  0.252403974533081
(PID.TID 0000.0001)         No. starts:           1
(PID.TID 0000.0001)          No. stops:           1
(PID.TID 0000.0001) // ======================================================
(PID.TID 0000.0001) // Tile <-> Tile communication statistics
(PID.TID 0000.0001) // ======================================================
(PID.TID 0000.0001) // o Tile number: 000001
(PID.TID 0000.0001) //         No. X exchanges =         541992
(PID.TID 0000.0001) //            Max. X spins =              1
(PID.TID 0000.0001) //            Min. X spins =              1
(PID.TID 0000.0001) //          Total. X spins =         541992
(PID.TID 0000.0001) //            Avg. X spins =       1.00E+00
(PID.TID 0000.0001) //         No. Y exchanges =         541992
(PID.TID 0000.0001) //            Max. Y spins =              1
(PID.TID 0000.0001) //            Min. Y spins =              1
(PID.TID 0000.0001) //          Total. Y spins =         541992
(PID.TID 0000.0001) //            Avg. Y spins =       1.00E+00
(PID.TID 0000.0001) // o Thread number: 000001
(PID.TID 0000.0001) //            No. barriers =              0
(PID.TID 0000.0001) //      Max. barrier spins =              0
(PID.TID 0000.0001) //      Min. barrier spins =     1000000000
(PID.TID 0000.0001) //     Total barrier spins =              0
(PID.TID 0000.0001) //      Avg. barrier spins =       0.00E+00
NORMAL END
