(PID.TID 0000.0001) 
(PID.TID 0000.0001) // ======================================================
(PID.TID 0000.0001) //                      MITgcm UV
(PID.TID 0000.0001) //                      =========
(PID.TID 0000.0001) // ======================================================
(PID.TID 0000.0001) // execution environment starting up...
(PID.TID 0000.0001) 
(PID.TID 0000.0001) // MITgcmUV version:  checkpoint64i
(PID.TID 0000.0001) // Build user:        dgoldberg
(PID.TID 0000.0001) // Build host:        baudelaire
(PID.TID 0000.0001) // Build date:        Sat Aug 24 19:55:34 EDT 2013
(PID.TID 0000.0001) 
(PID.TID 0000.0001) // =======================================================
(PID.TID 0000.0001) // Execution Environment parameter file "eedata"
(PID.TID 0000.0001) // =======================================================
(PID.TID 0000.0001) ># Example "eedata" file
(PID.TID 0000.0001) ># Lines beginning "#" are comments
(PID.TID 0000.0001) ># nTx - No. threads per process in X
(PID.TID 0000.0001) ># nTy - No. threads per process in Y
(PID.TID 0000.0001) > &EEPARMS
(PID.TID 0000.0001) > /
(PID.TID 0000.0001) ># Note: Some systems use & as the
(PID.TID 0000.0001) ># namelist terminator. Other systems
(PID.TID 0000.0001) ># use a / character (as shown here).
(PID.TID 0000.0001) 
(PID.TID 0000.0001) // =======================================================
(PID.TID 0000.0001) // Computational Grid Specification ( see files "SIZE.h" )
(PID.TID 0000.0001) //                                  ( and "eedata"       )
(PID.TID 0000.0001) // =======================================================
(PID.TID 0000.0001)      nPx =    1 ; /* No. processes in X */
(PID.TID 0000.0001)      nPy =    1 ; /* No. processes in Y */
(PID.TID 0000.0001)      nSx =    2 ; /* No. tiles in X per process */
(PID.TID 0000.0001)      nSy =    1 ; /* No. tiles in Y per process */
(PID.TID 0000.0001)      sNx =   20 ; /* Tile size in X */
(PID.TID 0000.0001)      sNy =   20 ; /* Tile size in Y */
(PID.TID 0000.0001)      OLx =    3 ; /* Tile overlap distance in X */
(PID.TID 0000.0001)      OLy =    3 ; /* Tile overlap distance in Y */
(PID.TID 0000.0001)      nTx =    1 ; /* No. threads in X per process */
(PID.TID 0000.0001)      nTy =    1 ; /* No. threads in Y per process */
(PID.TID 0000.0001)       Nr =    1 ; /* No. levels in the vertical   */
(PID.TID 0000.0001)       Nx =   40 ; /* Total domain size in X ( = nPx*nSx*sNx ) */
(PID.TID 0000.0001)       Ny =   20 ; /* Total domain size in Y ( = nPy*nSy*sNy ) */
(PID.TID 0000.0001)   nTiles =    2 ; /* Total no. tiles per process ( = nSx*nSy ) */
(PID.TID 0000.0001)   nProcs =    1 ; /* Total no. processes ( = nPx*nPy ) */
(PID.TID 0000.0001) nThreads =    1 ; /* Total no. threads per process ( = nTx*nTy ) */
(PID.TID 0000.0001) usingMPI =    F ; /* Flag used to control whether MPI is in use */
(PID.TID 0000.0001)                   /*  note: To execute a program with MPI calls */
(PID.TID 0000.0001)                   /*  it must be launched appropriately e.g     */
(PID.TID 0000.0001)                   /*  "mpirun -np 64 ......"                    */
(PID.TID 0000.0001) useCoupler=    F ;/* Flag used to control communications with   */
(PID.TID 0000.0001)                   /*  other model components, through a coupler */
(PID.TID 0000.0001) debugMode =    F ; /* print debug msg. (sequence of S/R calls)  */
(PID.TID 0000.0001) printMapIncludesZeros=    F ; /* print zeros in Std.Output maps */
(PID.TID 0000.0001) maxLengthPrt1D=   65 /* maxLength of 1D array printed to StdOut */
(PID.TID 0000.0001) 
(PID.TID 0000.0001) // ======================================================
(PID.TID 0000.0001) // Mapping of tiles to threads
(PID.TID 0000.0001) // ======================================================
(PID.TID 0000.0001) // -o- Thread   1, tiles (   1:   2,   1:   1)
(PID.TID 0000.0001) 
(PID.TID 0000.0001) // ======================================================
(PID.TID 0000.0001) // Tile <-> Tile connectvity table
(PID.TID 0000.0001) // ======================================================
(PID.TID 0000.0001) // Tile number: 000001 (process no. = 000000)
(PID.TID 0000.0001) //        WEST: Tile = 000002, Process = 000000, Comm = put
(PID.TID 0000.0001) //                bi = 000002, bj = 000001
(PID.TID 0000.0001) //        EAST: Tile = 000002, Process = 000000, Comm = put
(PID.TID 0000.0001) //                bi = 000002, bj = 000001
(PID.TID 0000.0001) //       SOUTH: Tile = 000001, Process = 000000, Comm = put
(PID.TID 0000.0001) //                bi = 000001, bj = 000001
(PID.TID 0000.0001) //       NORTH: Tile = 000001, Process = 000000, Comm = put
(PID.TID 0000.0001) //                bi = 000001, bj = 000001
(PID.TID 0000.0001) // Tile number: 000002 (process no. = 000000)
(PID.TID 0000.0001) //        WEST: Tile = 000001, Process = 000000, Comm = put
(PID.TID 0000.0001) //                bi = 000001, bj = 000001
(PID.TID 0000.0001) //        EAST: Tile = 000001, Process = 000000, Comm = put
(PID.TID 0000.0001) //                bi = 000001, bj = 000001
(PID.TID 0000.0001) //       SOUTH: Tile = 000002, Process = 000000, Comm = put
(PID.TID 0000.0001) //                bi = 000002, bj = 000001
(PID.TID 0000.0001) //       NORTH: Tile = 000002, Process = 000000, Comm = put
(PID.TID 0000.0001) //                bi = 000002, bj = 000001
(PID.TID 0000.0001) 
(PID.TID 0000.0001)  INI_PARMS: opening model parameter file "data"
(PID.TID 0000.0001)  OPEN_COPY_DATA_FILE: opening file data
(PID.TID 0000.0001) // =======================================================
(PID.TID 0000.0001) // Parameter file "data"
(PID.TID 0000.0001) // =======================================================
(PID.TID 0000.0001) ># Model parameters
(PID.TID 0000.0001) ># Continuous equation parameters
(PID.TID 0000.0001) > &PARM01
(PID.TID 0000.0001) > tRef=20.,
(PID.TID 0000.0001) > sRef=10.,
(PID.TID 0000.0001) > gravity=9.81,
(PID.TID 0000.0001) > hFacMin=.05,
(PID.TID 0000.0001) > hFacMindz=50.,
(PID.TID 0000.0001) > momstepping=.FALSE.,
(PID.TID 0000.0001) > tempstepping=.FALSE.,
(PID.TID 0000.0001) > saltstepping=.FALSE.,
(PID.TID 0000.0001) > readBinaryPrec=64,
(PID.TID 0000.0001) > writeBinaryPrec=64,
(PID.TID 0000.0001) > globalFiles=.FALSE.,
(PID.TID 0000.0001) > debugLevel=4,
(PID.TID 0000.0001) > /
(PID.TID 0000.0001) >
(PID.TID 0000.0001) ># Elliptic solver parameters
(PID.TID 0000.0001) > &PARM02
(PID.TID 0000.0001) > cg2dMaxIters=1000,
(PID.TID 0000.0001) > cg2dTargetResidual=1.E-10,
(PID.TID 0000.0001) > /
(PID.TID 0000.0001) >
(PID.TID 0000.0001) ># Time stepping parameters
(PID.TID 0000.0001) > &PARM03
(PID.TID 0000.0001) > startTime=0.,
(PID.TID 0000.0001) > nTimeSteps = 10,
(PID.TID 0000.0001) ># endTime=6307200000.,
(PID.TID 0000.0001) ># endTime=8640000000.,
(PID.TID 0000.0001) > deltaT=6307200.,
(PID.TID 0000.0001) ># abEps=0.1,
(PID.TID 0000.0001) ># pChkptFreq=2592000.,
(PID.TID 0000.0001) ># chkptFreq=120000.,
(PID.TID 0000.0001) ># dumpFreq=2592000.,
(PID.TID 0000.0001) >  monitorFreq=63072000.,
(PID.TID 0000.0001) >  monitorSelect=1,
(PID.TID 0000.0001) > /
(PID.TID 0000.0001) >
(PID.TID 0000.0001) ># Gridding parameters
(PID.TID 0000.0001) > &PARM04
(PID.TID 0000.0001) > usingCartesianGrid=.TRUE.,
(PID.TID 0000.0001) > delX=40*2.e3,
(PID.TID 0000.0001) > delY=20*2.e3,
(PID.TID 0000.0001) > delZ=1800.,
(PID.TID 0000.0001) > /
(PID.TID 0000.0001) >
(PID.TID 0000.0001) > &PARM05
(PID.TID 0000.0001) > bathyFile='topog.box',
(PID.TID 0000.0001) ># hydrogThetaFile=,
(PID.TID 0000.0001) ># hydrogSaltFile=,
(PID.TID 0000.0001) > /
(PID.TID 0000.0001) 
(PID.TID 0000.0001)  INI_PARMS ; starts to read PARM01
(PID.TID 0000.0001)  INI_PARMS ; read PARM01 : OK
(PID.TID 0000.0001) S/R INI_PARMS: No request for barotropic solver
(PID.TID 0000.0001) S/R INI_PARMS: => Use implicitFreeSurface as default
(PID.TID 0000.0001)  INI_PARMS ; starts to read PARM02
(PID.TID 0000.0001)  INI_PARMS ; read PARM02 : OK
(PID.TID 0000.0001)  INI_PARMS ; starts to read PARM03
(PID.TID 0000.0001)  INI_PARMS ; read PARM03 : OK
(PID.TID 0000.0001)  INI_PARMS ; starts to read PARM04
(PID.TID 0000.0001)  INI_PARMS ; read PARM04 : OK
(PID.TID 0000.0001)  INI_PARMS ; starts to read PARM05
(PID.TID 0000.0001)  INI_PARMS ; read PARM05 : OK
(PID.TID 0000.0001)  INI_PARMS: finished reading file "data"
(PID.TID 0000.0001)  PACKAGES_BOOT: opening data.pkg
(PID.TID 0000.0001)  OPEN_COPY_DATA_FILE: opening file data.pkg
(PID.TID 0000.0001) // =======================================================
(PID.TID 0000.0001) // Parameter file "data.pkg"
(PID.TID 0000.0001) // =======================================================
(PID.TID 0000.0001) ># Packages
(PID.TID 0000.0001) > &PACKAGES
(PID.TID 0000.0001) ># useMNC=.TRUE.,
(PID.TID 0000.0001) > useStreamIce=.true.
(PID.TID 0000.0001) > useDiagnostics = .true.,
(PID.TID 0000.0001) > useGrdchk = .false.,
(PID.TID 0000.0001) > /
(PID.TID 0000.0001) 
(PID.TID 0000.0001)  PACKAGES_BOOT: finished reading data.pkg
(PID.TID 0000.0001) STREAMICE_READPARMS: opening data.streamice
(PID.TID 0000.0001)  OPEN_COPY_DATA_FILE: opening file data.streamice
(PID.TID 0000.0001) // =======================================================
(PID.TID 0000.0001) // Parameter file "data.streamice"
(PID.TID 0000.0001) // =======================================================
(PID.TID 0000.0001) ># ===================================
(PID.TID 0000.0001) ># | Parameters for STREAMICE package |
(PID.TID 0000.0001) ># ===================================
(PID.TID 0000.0001) > &STREAMICE_PARM01
(PID.TID 0000.0001) > streamice_density = 917.,
(PID.TID 0000.0001) > streamice_density_ocean_avg = 1028.,
(PID.TID 0000.0001) > B_glen_isothermal = 700.,
(PID.TID 0000.0001) > C_basal_fric_const = 5.,
(PID.TID 0000.0001) > n_glen = 3.0,
(PID.TID 0000.0001) > n_basal_friction = 1.,
(PID.TID 0000.0001) > eps_glen_min = 1.0e-12,
(PID.TID 0000.0001) > eps_u_min = 1.0e-12,
(PID.TID 0000.0001) > streamice_cg_tol = 1.0e-6,
(PID.TID 0000.0001) > STREAMICE_lower_cg_tol = .true.,
(PID.TID 0000.0001) > streamice_nonlin_tol = 1.0e-6,
(PID.TID 0000.0001) > streamice_nonlin_tol_fp = 1.e-9,
(PID.TID 0000.0001) > streamice_max_cg_iter = 500,
(PID.TID 0000.0001) > streamice_max_nl_iter = 20,
(PID.TID 0000.0001) > STREAMICE_GL_regularize = .false.,
(PID.TID 0000.0001) > STREAMICE_GL_regularize = .false.,
(PID.TID 0000.0001) > STREAMICE_move_front = .true.,
(PID.TID 0000.0001) > STREAMICE_calve_to_mask = .false.,
(PID.TID 0000.0001) > streamice_CFL_factor = 0.5,
(PID.TID 0000.0001) > STREAMICE_dump_mdsio = .true.,
(PID.TID 0000.0001) > streamice_bg_surf_slope_x = 0.,
(PID.TID 0000.0001) > STREAMICEthickInit='PARAM',
(PID.TID 0000.0001) > STREAMICEthickFile='h_init.box',
(PID.TID 0000.0001) > STREAMICEtopogFile='topog.box',
(PID.TID 0000.0001) > STREAMICEbasalTracConfig='UNIFORM',
(PID.TID 0000.0001) > STREAMICEGlenConstConfig='UNIFORM',
(PID.TID 0000.0001) > /
(PID.TID 0000.0001) >
(PID.TID 0000.0001) >#&STREAMICE_PARMPETSC
(PID.TID 0000.0001) >#PETSC_SOLVER_TYPE = 'BICG',
(PID.TID 0000.0001) >#PETSC_PRECOND_TYPE = 'BLOCKJACOBI',
(PID.TID 0000.0001) >#&
(PID.TID 0000.0001) >
(PID.TID 0000.0001) > &STREAMICE_PARM02
(PID.TID 0000.0001) > shelf_max_draft = 1300.0,
(PID.TID 0000.0001) > shelf_min_draft = 300.0,
(PID.TID 0000.0001) > shelf_edge_pos = 70.0e3,
(PID.TID 0000.0001) > shelf_slope_scale = 62.0e3,
(PID.TID 0000.0001) > shelf_flat_width = 20.0e3,
(PID.TID 0000.0001) > /
(PID.TID 0000.0001) >
(PID.TID 0000.0001) > &STREAMICE_PARM03
(PID.TID 0000.0001) > min_x_noflow_north = 0.0,
(PID.TID 0000.0001) > max_x_noflow_north = 120.0e3,
(PID.TID 0000.0001) > min_x_noflow_south = 0.0,
(PID.TID 0000.0001) > max_x_noflow_south = 120.0e3,
(PID.TID 0000.0001) > min_y_noflow_WEST = -1.0,
(PID.TID 0000.0001) > max_y_noflow_WEST = -1.0,
(PID.TID 0000.0001) > min_y_noflow_EAST = -1.0,
(PID.TID 0000.0001) > max_y_noflow_EAST = -1.0,
(PID.TID 0000.0001) > min_x_noStress_NORTH = 0.0e3,
(PID.TID 0000.0001) > max_x_noStress_NORTH = 0.0e3,
(PID.TID 0000.0001) > min_x_noStress_SOUTH = 0.0e3,
(PID.TID 0000.0001) > max_x_noStress_SOUTH = 0.0e3,
(PID.TID 0000.0001) > min_y_noStress_WEST = -1.0,
(PID.TID 0000.0001) > max_y_noStress_WEST = -1.0,
(PID.TID 0000.0001) > min_y_noStress_EAST = -1.0,
(PID.TID 0000.0001) > max_y_noStress_EAST = -1.0,
(PID.TID 0000.0001) > min_x_FluxBdry_NORTH = -1.0,
(PID.TID 0000.0001) > max_x_FluxBdry_NORTH = -1.0,
(PID.TID 0000.0001) > min_x_FluxBdry_SOUTH = -1.0,
(PID.TID 0000.0001) > max_x_FluxBdry_SOUTH = -1.0,
(PID.TID 0000.0001) > min_y_FluxBdry_WEST = 0.0,
(PID.TID 0000.0001) > max_y_FluxBdry_WEST = 40.0e3,
(PID.TID 0000.0001) > min_y_FluxBdry_EAST = -1.0,
(PID.TID 0000.0001) > max_y_FluxBdry_EAST = -1.0,
(PID.TID 0000.0001) > min_x_Dirich_NORTH = -1.0,
(PID.TID 0000.0001) > max_x_Dirich_NORTH = -1.0,
(PID.TID 0000.0001) > min_x_Dirich_SOUTH = -1.0,
(PID.TID 0000.0001) > max_x_Dirich_SOUTH = -1.0,
(PID.TID 0000.0001) > min_y_Dirich_WEST = -1.0,
(PID.TID 0000.0001) > max_y_Dirich_WEST = -1.0,
(PID.TID 0000.0001) > min_y_Dirich_EAST = -1.0,
(PID.TID 0000.0001) > max_y_Dirich_EAST = -1.0,
(PID.TID 0000.0001) > min_x_CFBC_NORTH = -1.0,
(PID.TID 0000.0001) > max_x_CFBC_NORTH = -1.0,
(PID.TID 0000.0001) > min_x_CFBC_SOUTH = -1.0,
(PID.TID 0000.0001) > max_x_CFBC_SOUTH = -1.0,
(PID.TID 0000.0001) > min_y_CFBC_WEST = -1.0,
(PID.TID 0000.0001) > max_y_CFBC_WEST = -1.0,
(PID.TID 0000.0001) > min_y_CFBC_EAST = 0.0,
(PID.TID 0000.0001) > max_y_CFBC_EAST = 40.0e3,
(PID.TID 0000.0001) > flux_bdry_val_WEST =1.5e6,
(PID.TID 0000.0001) > STREAMICE_NS_periodic = .false.,
(PID.TID 0000.0001) > STREAMICE_EW_periodic = .false.,
(PID.TID 0000.0001) > /
(PID.TID 0000.0001) 
(PID.TID 0000.0001) STREAMICE_READPARMS: read first param block
(PID.TID 0000.0001) STREAMICE_READPARMS: read second param block
(PID.TID 0000.0001) STREAMICE_READPARMS: read third param block
(PID.TID 0000.0001)  DIAGNOSTICS_READPARMS: opening data.diagnostics
(PID.TID 0000.0001)  OPEN_COPY_DATA_FILE: opening file data.diagnostics
(PID.TID 0000.0001) // =======================================================
(PID.TID 0000.0001) // Parameter file "data.diagnostics"
(PID.TID 0000.0001) // =======================================================
(PID.TID 0000.0001) ># Diagnostic Package Choices
(PID.TID 0000.0001) >#-----------------
(PID.TID 0000.0001) ># for each output-stream:
(PID.TID 0000.0001) >#  filename(n) : prefix of the output file name (only 8.c long) for outp.stream n
(PID.TID 0000.0001) >#  frequency(n):< 0 : write snap-shot output every |frequency| seconds
(PID.TID 0000.0001) >#               > 0 : write time-average output every frequency seconds
(PID.TID 0000.0001) >#  timePhase(n)     : write at time = timePhase + multiple of |frequency|
(PID.TID 0000.0001) >#  averagingFreq(n) : frequency (in s) for periodic averaging interval
(PID.TID 0000.0001) >#  averagingPhase(n): phase     (in s) for periodic averaging interval
(PID.TID 0000.0001) >#  repeatCycle(n)   : number of averaging intervals in 1 cycle
(PID.TID 0000.0001) >#  levels(:,n) : list of levels to write to file (Notes: declared as REAL)
(PID.TID 0000.0001) >#                 when this entry is missing, select all common levels of this list
(PID.TID 0000.0001) >#  fields(:,n) : list of diagnostics fields (8.c) (see "available_diagnostics.log"
(PID.TID 0000.0001) >#                 file for the list of all available diag. in this particular config)
(PID.TID 0000.0001) >#-----------------
(PID.TID 0000.0001) > &DIAGNOSTICS_LIST
(PID.TID 0000.0001) ># diag_mnc     = .FALSE.,
(PID.TID 0000.0001) ># dumpAtLast   = .TRUE.,
(PID.TID 0000.0001) >   fields(1:6,1) = 'SI_Uvel ','SI_Vvel ','SI_Thick',
(PID.TID 0000.0001) >                 'SI_area ','SI_float','SI_selev'
(PID.TID 0000.0001) >#                'SIheff  ','SIarea  ','SIhsnow ','SIatmFW ',
(PID.TID 0000.0001) >#                'SHIForcT','SHIForcS',
(PID.TID 0000.0001) >#                'surForcT','surForcS','TFLUX   ','SFLUX   ','oceFreez',
(PID.TID 0000.0001) >#                 'TRELAX  ','SRELAX  ',
(PID.TID 0000.0001) >#                'GM_VisbK',
(PID.TID 0000.0001) >   filename(1) = 'land_ice',
(PID.TID 0000.0001) >  frequency(1) = 63072000,
(PID.TID 0000.0001) >#                'GM_PsiX ','GM_PsiY ',
(PID.TID 0000.0001) >#                'GM_Kwx  ','GM_Kwy  ','GM_Kwz  ',
(PID.TID 0000.0001) >#                'GM_Kux  ','GM_Kvy  ',
(PID.TID 0000.0001) >#                'GM_Kuz  ','GM_Kvz  ',
(PID.TID 0000.0001) >#- disable this output list by commenting out the file name
(PID.TID 0000.0001) >#  filename(3) = 'diagsEXF',
(PID.TID 0000.0001) ># frequency(3) = 1.,
(PID.TID 0000.0001) >#  fields(1,4) = 'ADVx_TH ','ADVy_TH ','ADVr_TH ',
(PID.TID 0000.0001) >#                'DIFx_TH ','DIFy_TH ','DFrE_TH ',
(PID.TID 0000.0001) >#                'DFrI_TH ',
(PID.TID 0000.0001) >#                'ADVx_SLT',
(PID.TID 0000.0001) >#  filename(4) = 'flxDiag',
(PID.TID 0000.0001) ># frequency(4) = 2592000.,
(PID.TID 0000.0001) > /
(PID.TID 0000.0001) >
(PID.TID 0000.0001) ># Parameter for Diagnostics of per level statistics:
(PID.TID 0000.0001) >#-----------------
(PID.TID 0000.0001) ># for each output-stream:
(PID.TID 0000.0001) >#  stat_fname(n) : prefix of the output file name (only 8.c long) for outp.stream n
(PID.TID 0000.0001) >#  stat_freq(n):< 0 : write snap-shot output every |stat_freq| seconds
(PID.TID 0000.0001) >#               > 0 : write time-average output every stat_freq seconds
(PID.TID 0000.0001) >#  stat_phase(n)    : write at time = stat_phase + multiple of |stat_freq|
(PID.TID 0000.0001) >#  stat_region(:,n) : list of "regions" (default: 1 region only=global)
(PID.TID 0000.0001) >#  stat_fields(:,n) : list of diagnostics fields (8.c) (see "available_diagnostics.log"
(PID.TID 0000.0001) >#                 file for the list of all available diag. in this particular config)
(PID.TID 0000.0001) >#-----------------
(PID.TID 0000.0001) > &DIAG_STATIS_PARMS
(PID.TID 0000.0001) >#- regional mask: 3 lat. band: 1 : y <= -24 ; 2 : -24<y<24 ; 3 : 24 <= y
(PID.TID 0000.0001) ># diagSt_regMaskFile='regMask_lat24.bin',
(PID.TID 0000.0001) ># nSetRegMskFile=1,
(PID.TID 0000.0001) ># set_regMask(1)= 1,  1,  1,
(PID.TID 0000.0001) ># val_regMask(1)= 1., 2., 3.,
(PID.TID 0000.0001) >#---
(PID.TID 0000.0001) >#stat_fields(1,1)= 'ETAN    ','UVEL    ','VVEL    ','WVEL    ',
(PID.TID 0000.0001) >#                  'THETA   ','SALT    ','SIarea  ','SIheff  ',
(PID.TID 0000.0001) >#   stat_fname(1)= 'dynStDiag',
(PID.TID 0000.0001) >#    stat_freq(1)= 864000.,
(PID.TID 0000.0001) > /
(PID.TID 0000.0001) >
(PID.TID 0000.0001) 
(PID.TID 0000.0001) S/R DIAGNOSTICS_READPARMS, read namelist "diagnostics_list": start
(PID.TID 0000.0001) S/R DIAGNOSTICS_READPARMS, read namelist "diagnostics_list": OK
(PID.TID 0000.0001) S/R DIAGNOSTICS_READPARMS, read namelist "DIAG_STATIS_PARMS": start
(PID.TID 0000.0001) S/R DIAGNOSTICS_READPARMS, read namelist "DIAG_STATIS_PARMS": OK
(PID.TID 0000.0001)  DIAGNOSTICS_READPARMS: global parameter summary:
(PID.TID 0000.0001)  dumpAtLast = /* always write time-ave diags at the end */
(PID.TID 0000.0001)                   F
(PID.TID 0000.0001)     ;
(PID.TID 0000.0001)  diag_mnc =   /* write NetCDF output files */
(PID.TID 0000.0001)                   F
(PID.TID 0000.0001)     ;
(PID.TID 0000.0001)  useMissingValue = /* put MissingValue where mask = 0 */
(PID.TID 0000.0001)                   F
(PID.TID 0000.0001)     ;
(PID.TID 0000.0001)  diagCG_maxIters = /* max number of iters in diag_cg2d */
(PID.TID 0000.0001)                    1000
(PID.TID 0000.0001)     ;
(PID.TID 0000.0001)  diagCG_resTarget = /* residual target for diag_cg2d */
(PID.TID 0000.0001)                 1.000000000000000E-10
(PID.TID 0000.0001)     ;
(PID.TID 0000.0001) -----------------------------------------------------
(PID.TID 0000.0001)  DIAGNOSTICS_READPARMS: active diagnostics summary:
(PID.TID 0000.0001) -----------------------------------------------------
(PID.TID 0000.0001) Creating Output Stream: land_ice
(PID.TID 0000.0001) Output Frequency:   63072000.000000 ; Phase:           0.000000
(PID.TID 0000.0001)  Averaging Freq.:   63072000.000000 , Phase:           0.000000 , Cycle:   1
(PID.TID 0000.0001)  missing value: -9.990000000000E+02
(PID.TID 0000.0001)  Levels:    will be set later
(PID.TID 0000.0001)  Fields:    SI_Uvel  SI_Vvel  SI_Thick SI_area  SI_float SI_selev
(PID.TID 0000.0001) -----------------------------------------------------
(PID.TID 0000.0001)  DIAGNOSTICS_READPARMS: statistics diags. summary:
(PID.TID 0000.0001) -----------------------------------------------------
(PID.TID 0000.0001) 
(PID.TID 0000.0001) SET_PARMS: done
(PID.TID 0000.0001) Enter INI_VERTICAL_GRID: setInterFDr=    T ; setCenterDr=    F
(PID.TID 0000.0001) %MON XC_max                       =   7.9000000000000E+04
(PID.TID 0000.0001) %MON XC_min                       =   1.0000000000000E+03
(PID.TID 0000.0001) %MON XC_mean                      =   4.0000000000000E+04
(PID.TID 0000.0001) %MON XC_sd                        =   2.3086792761230E+04
(PID.TID 0000.0001) %MON XG_max                       =   7.8000000000000E+04
(PID.TID 0000.0001) %MON XG_min                       =   0.0000000000000E+00
(PID.TID 0000.0001) %MON XG_mean                      =   3.9000000000000E+04
(PID.TID 0000.0001) %MON XG_sd                        =   2.3086792761230E+04
(PID.TID 0000.0001) %MON DXC_max                      =   2.0000000000000E+03
(PID.TID 0000.0001) %MON DXC_min                      =   2.0000000000000E+03
(PID.TID 0000.0001) %MON DXC_mean                     =   2.0000000000000E+03
(PID.TID 0000.0001) %MON DXC_sd                       =   0.0000000000000E+00
(PID.TID 0000.0001) %MON DXF_max                      =   2.0000000000000E+03
(PID.TID 0000.0001) %MON DXF_min                      =   2.0000000000000E+03
(PID.TID 0000.0001) %MON DXF_mean                     =   2.0000000000000E+03
(PID.TID 0000.0001) %MON DXF_sd                       =   0.0000000000000E+00
(PID.TID 0000.0001) %MON DXG_max                      =   2.0000000000000E+03
(PID.TID 0000.0001) %MON DXG_min                      =   2.0000000000000E+03
(PID.TID 0000.0001) %MON DXG_mean                     =   2.0000000000000E+03
(PID.TID 0000.0001) %MON DXG_sd                       =   0.0000000000000E+00
(PID.TID 0000.0001) %MON DXV_max                      =   2.0000000000000E+03
(PID.TID 0000.0001) %MON DXV_min                      =   2.0000000000000E+03
(PID.TID 0000.0001) %MON DXV_mean                     =   2.0000000000000E+03
(PID.TID 0000.0001) %MON DXV_sd                       =   0.0000000000000E+00
(PID.TID 0000.0001) %MON YC_max                       =   3.9000000000000E+04
(PID.TID 0000.0001) %MON YC_min                       =   1.0000000000000E+03
(PID.TID 0000.0001) %MON YC_mean                      =   2.0000000000000E+04
(PID.TID 0000.0001) %MON YC_sd                        =   1.1532562594671E+04
(PID.TID 0000.0001) %MON YG_max                       =   3.8000000000000E+04
(PID.TID 0000.0001) %MON YG_min                       =   0.0000000000000E+00
(PID.TID 0000.0001) %MON YG_mean                      =   1.9000000000000E+04
(PID.TID 0000.0001) %MON YG_sd                        =   1.1532562594671E+04
(PID.TID 0000.0001) %MON DYC_max                      =   2.0000000000000E+03
(PID.TID 0000.0001) %MON DYC_min                      =   2.0000000000000E+03
(PID.TID 0000.0001) %MON DYC_mean                     =   2.0000000000000E+03
(PID.TID 0000.0001) %MON DYC_sd                       =   0.0000000000000E+00
(PID.TID 0000.0001) %MON DYF_max                      =   2.0000000000000E+03
(PID.TID 0000.0001) %MON DYF_min                      =   2.0000000000000E+03
(PID.TID 0000.0001) %MON DYF_mean                     =   2.0000000000000E+03
(PID.TID 0000.0001) %MON DYF_sd                       =   0.0000000000000E+00
(PID.TID 0000.0001) %MON DYG_max                      =   2.0000000000000E+03
(PID.TID 0000.0001) %MON DYG_min                      =   2.0000000000000E+03
(PID.TID 0000.0001) %MON DYG_mean                     =   2.0000000000000E+03
(PID.TID 0000.0001) %MON DYG_sd                       =   0.0000000000000E+00
(PID.TID 0000.0001) %MON DYU_max                      =   2.0000000000000E+03
(PID.TID 0000.0001) %MON DYU_min                      =   2.0000000000000E+03
(PID.TID 0000.0001) %MON DYU_mean                     =   2.0000000000000E+03
(PID.TID 0000.0001) %MON DYU_sd                       =   0.0000000000000E+00
(PID.TID 0000.0001) %MON RA_max                       =   4.0000000000000E+06
(PID.TID 0000.0001) %MON RA_min                       =   4.0000000000000E+06
(PID.TID 0000.0001) %MON RA_mean                      =   4.0000000000000E+06
(PID.TID 0000.0001) %MON RA_sd                        =   0.0000000000000E+00
(PID.TID 0000.0001) %MON RAW_max                      =   4.0000000000000E+06
(PID.TID 0000.0001) %MON RAW_min                      =   4.0000000000000E+06
(PID.TID 0000.0001) %MON RAW_mean                     =   4.0000000000000E+06
(PID.TID 0000.0001) %MON RAW_sd                       =   0.0000000000000E+00
(PID.TID 0000.0001) %MON RAS_max                      =   4.0000000000000E+06
(PID.TID 0000.0001) %MON RAS_min                      =   4.0000000000000E+06
(PID.TID 0000.0001) %MON RAS_mean                     =   4.0000000000000E+06
(PID.TID 0000.0001) %MON RAS_sd                       =   0.0000000000000E+00
(PID.TID 0000.0001) %MON RAZ_max                      =   4.0000000000000E+06
(PID.TID 0000.0001) %MON RAZ_min                      =   4.0000000000000E+06
(PID.TID 0000.0001) %MON RAZ_mean                     =   4.0000000000000E+06
(PID.TID 0000.0001) %MON RAZ_sd                       =   0.0000000000000E+00
(PID.TID 0000.0001) %MON AngleCS_max                  =   1.0000000000000E+00
(PID.TID 0000.0001) %MON AngleCS_min                  =   1.0000000000000E+00
(PID.TID 0000.0001) %MON AngleCS_mean                 =   1.0000000000000E+00
(PID.TID 0000.0001) %MON AngleCS_sd                   =   0.0000000000000E+00
(PID.TID 0000.0001) %MON AngleSN_max                  =   0.0000000000000E+00
(PID.TID 0000.0001) %MON AngleSN_min                  =   0.0000000000000E+00
(PID.TID 0000.0001) %MON AngleSN_mean                 =   0.0000000000000E+00
(PID.TID 0000.0001) %MON AngleSN_sd                   =   0.0000000000000E+00
(PID.TID 0000.0001)  MDS_WRITEVEC_LOC: open file: RhoRef.data
(PID.TID 0000.0001)  MDS_WR_REC_RL: iRec,Dim =         1          1
(PID.TID 0000.0001)  MDS_READ_FIELD: opening global file: topog.box
(PID.TID 0000.0001) // =======================================================
(PID.TID 0000.0001) // Field Bottom depths (ini_depths)
(PID.TID 0000.0001) // CMIN =         -9.000000000000000E+02
(PID.TID 0000.0001) // CMAX =         -6.247738036416997E+02
(PID.TID 0000.0001) // CINT =          1.019356282808520E+01
(PID.TID 0000.0001) // SYMBOLS (CMIN->CMAX): -abcdefghijklmnopqrstuvwxyz+
(PID.TID 0000.0001) //                  0.0: .
(PID.TID 0000.0001) // RANGE I (Lo:Hi:Step):(    -2:    43:     1)
(PID.TID 0000.0001) // RANGE J (Lo:Hi:Step):(    23:    -2:    -1)
(PID.TID 0000.0001) // RANGE K (Lo:Hi:Step):(   1:   1:   1)
(PID.TID 0000.0001) // =======================================================
(PID.TID 0000.0001) K =   1
(PID.TID 0000.0001) //                I=7       I=17      I=21      I=31      I=41
(PID.TID 0000.0001) // |--J--|210123456|890123456|890123890|234567890|234567890|23
(PID.TID 0000.0001) //     23 rr.rrrrrrrrrrrrrrrrrrrrrrrrrrrrrrrrrrrrrrrrrrrrr.rrr
(PID.TID 0000.0001) //     22 vv.vvvvvvvvvvvvvvvvvvvvvvvvvvvvvvvvvvvvvvvvvvvvv.vvv
(PID.TID 0000.0001) //     21 ++.+++++++++++++++++++++++++++++++++++++++++++++.+++
(PID.TID 0000.0001) //     20 ....................................................
(PID.TID 0000.0001) //     19 ++.+++++++++++++++++++++++++++++++++++++++++++++.+++
(PID.TID 0000.0001) //     18 vv.vvvvvvvvvvvvvvvvvvvvvvvvvvvvvvvvvvvvvvvvvvvvv.vvv
(PID.TID 0000.0001) //     17 rr.rrrrrrrrrrrrrrrrrrrrrrrrrrrrrrrrrrrrrrrrrrrrr.rrr
(PID.TID 0000.0001) //     16 mm.mmmmmmmmmmmmmmmmmmmmmmmmmmmmmmmmmmmmmmmmmmmmm.mmm
(PID.TID 0000.0001) //     15 ii.iiiiiiiiiiiiiiiiiiiiiiiiiiiiiiiiiiiiiiiiiiiii.iii
(PID.TID 0000.0001) //     14 ff.fffffffffffffffffffffffffffffffffffffffffffff.fff
(PID.TID 0000.0001) //     13 dd.ddddddddddddddddddddddddddddddddddddddddddddd.ddd
(PID.TID 0000.0001) //     12 bb.bbbbbbbbbbbbbbbbbbbbbbbbbbbbbbbbbbbbbbbbbbbbb.bbb
(PID.TID 0000.0001) //     11 --.---------------------------------------------.---
(PID.TID 0000.0001) //     10 --.---------------------------------------------.---
(PID.TID 0000.0001) //      9 --.---------------------------------------------.---
(PID.TID 0000.0001) //      8 bb.bbbbbbbbbbbbbbbbbbbbbbbbbbbbbbbbbbbbbbbbbbbbb.bbb
(PID.TID 0000.0001) //      7 dd.ddddddddddddddddddddddddddddddddddddddddddddd.ddd
(PID.TID 0000.0001) //      6 ff.fffffffffffffffffffffffffffffffffffffffffffff.fff
(PID.TID 0000.0001) //      5 ii.iiiiiiiiiiiiiiiiiiiiiiiiiiiiiiiiiiiiiiiiiiiii.iii
(PID.TID 0000.0001) //      4 mm.mmmmmmmmmmmmmmmmmmmmmmmmmmmmmmmmmmmmmmmmmmmmm.mmm
(PID.TID 0000.0001) //      3 rr.rrrrrrrrrrrrrrrrrrrrrrrrrrrrrrrrrrrrrrrrrrrrr.rrr
(PID.TID 0000.0001) //      2 vv.vvvvvvvvvvvvvvvvvvvvvvvvvvvvvvvvvvvvvvvvvvvvv.vvv
(PID.TID 0000.0001) //      1 ++.+++++++++++++++++++++++++++++++++++++++++++++.+++
(PID.TID 0000.0001) //      0 ....................................................
(PID.TID 0000.0001) //     -1 ++.+++++++++++++++++++++++++++++++++++++++++++++.+++
(PID.TID 0000.0001) //     -2 vv.vvvvvvvvvvvvvvvvvvvvvvvvvvvvvvvvvvvvvvvvvvvvv.vvv
(PID.TID 0000.0001) // =======================================================
(PID.TID 0000.0001) // END OF FIELD                                          =
(PID.TID 0000.0001) // =======================================================
(PID.TID 0000.0001) 
(PID.TID 0000.0001) // =======================================================
(PID.TID 0000.0001) // Field Surface reference r-position (ini_depths)
(PID.TID 0000.0001) // CMIN =          1.000000000000000E+32
(PID.TID 0000.0001) // CMAX =         -1.000000000000000E+32
(PID.TID 0000.0001) // CINT =          0.000000000000000E+00
(PID.TID 0000.0001) // SYMBOLS (CMIN->CMAX): -abcdefghijklmnopqrstuvwxyz+
(PID.TID 0000.0001) //                  0.0: .
(PID.TID 0000.0001) // RANGE I (Lo:Hi:Step):(    -2:    43:     1)
(PID.TID 0000.0001) // RANGE J (Lo:Hi:Step):(    23:    -2:    -1)
(PID.TID 0000.0001) // RANGE K (Lo:Hi:Step):(   1:   1:   1)
(PID.TID 0000.0001) // =======================================================
(PID.TID 0000.0001) // =======================================================
(PID.TID 0000.0001) // END OF FIELD                                          =
(PID.TID 0000.0001) // =======================================================
(PID.TID 0000.0001) 
(PID.TID 0000.0001) // =======================================================
(PID.TID 0000.0001) // Field Model R_low (ini_masks_etc)
(PID.TID 0000.0001) // CMIN =         -9.000000000000000E+02
(PID.TID 0000.0001) // CMAX =         -6.247738036416997E+02
(PID.TID 0000.0001) // CINT =          1.019356282808520E+01
(PID.TID 0000.0001) // SYMBOLS (CMIN->CMAX): -abcdefghijklmnopqrstuvwxyz+
(PID.TID 0000.0001) //                  0.0: .
(PID.TID 0000.0001) // RANGE I (Lo:Hi:Step):(    -2:    43:     1)
(PID.TID 0000.0001) // RANGE J (Lo:Hi:Step):(    23:    -2:    -1)
(PID.TID 0000.0001) // RANGE K (Lo:Hi:Step):(   1:   1:   1)
(PID.TID 0000.0001) // =======================================================
(PID.TID 0000.0001) K =   1
(PID.TID 0000.0001) //                I=7       I=17      I=21      I=31      I=41
(PID.TID 0000.0001) // |--J--|210123456|890123456|890123890|234567890|234567890|23
(PID.TID 0000.0001) //     23 rr.rrrrrrrrrrrrrrrrrrrrrrrrrrrrrrrrrrrrrrrrrrrrr.rrr
(PID.TID 0000.0001) //     22 vv.vvvvvvvvvvvvvvvvvvvvvvvvvvvvvvvvvvvvvvvvvvvvv.vvv
(PID.TID 0000.0001) //     21 ++.+++++++++++++++++++++++++++++++++++++++++++++.+++
(PID.TID 0000.0001) //     20 ....................................................
(PID.TID 0000.0001) //     19 ++.+++++++++++++++++++++++++++++++++++++++++++++.+++
(PID.TID 0000.0001) //     18 vv.vvvvvvvvvvvvvvvvvvvvvvvvvvvvvvvvvvvvvvvvvvvvv.vvv
(PID.TID 0000.0001) //     17 rr.rrrrrrrrrrrrrrrrrrrrrrrrrrrrrrrrrrrrrrrrrrrrr.rrr
(PID.TID 0000.0001) //     16 mm.mmmmmmmmmmmmmmmmmmmmmmmmmmmmmmmmmmmmmmmmmmmmm.mmm
(PID.TID 0000.0001) //     15 ii.iiiiiiiiiiiiiiiiiiiiiiiiiiiiiiiiiiiiiiiiiiiii.iii
(PID.TID 0000.0001) //     14 ff.fffffffffffffffffffffffffffffffffffffffffffff.fff
(PID.TID 0000.0001) //     13 dd.ddddddddddddddddddddddddddddddddddddddddddddd.ddd
(PID.TID 0000.0001) //     12 bb.bbbbbbbbbbbbbbbbbbbbbbbbbbbbbbbbbbbbbbbbbbbbb.bbb
(PID.TID 0000.0001) //     11 --.---------------------------------------------.---
(PID.TID 0000.0001) //     10 --.---------------------------------------------.---
(PID.TID 0000.0001) //      9 --.---------------------------------------------.---
(PID.TID 0000.0001) //      8 bb.bbbbbbbbbbbbbbbbbbbbbbbbbbbbbbbbbbbbbbbbbbbbb.bbb
(PID.TID 0000.0001) //      7 dd.ddddddddddddddddddddddddddddddddddddddddddddd.ddd
(PID.TID 0000.0001) //      6 ff.fffffffffffffffffffffffffffffffffffffffffffff.fff
(PID.TID 0000.0001) //      5 ii.iiiiiiiiiiiiiiiiiiiiiiiiiiiiiiiiiiiiiiiiiiiii.iii
(PID.TID 0000.0001) //      4 mm.mmmmmmmmmmmmmmmmmmmmmmmmmmmmmmmmmmmmmmmmmmmmm.mmm
(PID.TID 0000.0001) //      3 rr.rrrrrrrrrrrrrrrrrrrrrrrrrrrrrrrrrrrrrrrrrrrrr.rrr
(PID.TID 0000.0001) //      2 vv.vvvvvvvvvvvvvvvvvvvvvvvvvvvvvvvvvvvvvvvvvvvvv.vvv
(PID.TID 0000.0001) //      1 ++.+++++++++++++++++++++++++++++++++++++++++++++.+++
(PID.TID 0000.0001) //      0 ....................................................
(PID.TID 0000.0001) //     -1 ++.+++++++++++++++++++++++++++++++++++++++++++++.+++
(PID.TID 0000.0001) //     -2 vv.vvvvvvvvvvvvvvvvvvvvvvvvvvvvvvvvvvvvvvvvvvvvv.vvv
(PID.TID 0000.0001) // =======================================================
(PID.TID 0000.0001) // END OF FIELD                                          =
(PID.TID 0000.0001) // =======================================================
(PID.TID 0000.0001) 
(PID.TID 0000.0001) // =======================================================
(PID.TID 0000.0001) // Field Model Ro_surf (ini_masks_etc)
(PID.TID 0000.0001) // CMIN =          1.000000000000000E+32
(PID.TID 0000.0001) // CMAX =         -1.000000000000000E+32
(PID.TID 0000.0001) // CINT =          0.000000000000000E+00
(PID.TID 0000.0001) // SYMBOLS (CMIN->CMAX): -abcdefghijklmnopqrstuvwxyz+
(PID.TID 0000.0001) //                  0.0: .
(PID.TID 0000.0001) // RANGE I (Lo:Hi:Step):(    -2:    43:     1)
(PID.TID 0000.0001) // RANGE J (Lo:Hi:Step):(    23:    -2:    -1)
(PID.TID 0000.0001) // RANGE K (Lo:Hi:Step):(   1:   1:   1)
(PID.TID 0000.0001) // =======================================================
(PID.TID 0000.0001) // =======================================================
(PID.TID 0000.0001) // END OF FIELD                                          =
(PID.TID 0000.0001) // =======================================================
(PID.TID 0000.0001) 
(PID.TID 0000.0001) // =======================================================
(PID.TID 0000.0001) // Field hFacC at iteration          0
(PID.TID 0000.0001) // CMIN =          3.470965575787220E-01
(PID.TID 0000.0001) // CMAX =          5.000000000000000E-01
(PID.TID 0000.0001) // CINT =          5.663090460047332E-03
(PID.TID 0000.0001) // SYMBOLS (CMIN->CMAX): -abcdefghijklmnopqrstuvwxyz+
(PID.TID 0000.0001) //                  0.0: .
(PID.TID 0000.0001) // RANGE I (Lo:Hi:Step):(    -2:    43:     1)
(PID.TID 0000.0001) // RANGE J (Lo:Hi:Step):(    23:    -2:    -1)
(PID.TID 0000.0001) // RANGE K (Lo:Hi:Step):(   1:   1:   1)
(PID.TID 0000.0001) // =======================================================
(PID.TID 0000.0001) K =   1
(PID.TID 0000.0001) //                I=7       I=17      I=21      I=31      I=41
(PID.TID 0000.0001) // |--J--|210123456|890123456|890123890|234567890|234567890|23
(PID.TID 0000.0001) //     23 ii.iiiiiiiiiiiiiiiiiiiiiiiiiiiiiiiiiiiiiiiiiiiii.iii
(PID.TID 0000.0001) //     22 ee.eeeeeeeeeeeeeeeeeeeeeeeeeeeeeeeeeeeeeeeeeeeee.eee
(PID.TID 0000.0001) //     21 --.---------------------------------------------.---
(PID.TID 0000.0001) //     20 ....................................................
(PID.TID 0000.0001) //     19 --.---------------------------------------------.---
(PID.TID 0000.0001) //     18 ee.eeeeeeeeeeeeeeeeeeeeeeeeeeeeeeeeeeeeeeeeeeeee.eee
(PID.TID 0000.0001) //     17 ii.iiiiiiiiiiiiiiiiiiiiiiiiiiiiiiiiiiiiiiiiiiiii.iii
(PID.TID 0000.0001) //     16 nn.nnnnnnnnnnnnnnnnnnnnnnnnnnnnnnnnnnnnnnnnnnnnn.nnn
(PID.TID 0000.0001) //     15 rr.rrrrrrrrrrrrrrrrrrrrrrrrrrrrrrrrrrrrrrrrrrrrr.rrr
(PID.TID 0000.0001) //     14 uu.uuuuuuuuuuuuuuuuuuuuuuuuuuuuuuuuuuuuuuuuuuuuu.uuu
(PID.TID 0000.0001) //     13 ww.wwwwwwwwwwwwwwwwwwwwwwwwwwwwwwwwwwwwwwwwwwwww.www
(PID.TID 0000.0001) //     12 yy.yyyyyyyyyyyyyyyyyyyyyyyyyyyyyyyyyyyyyyyyyyyyy.yyy
(PID.TID 0000.0001) //     11 ++.+++++++++++++++++++++++++++++++++++++++++++++.+++
(PID.TID 0000.0001) //     10 ++.+++++++++++++++++++++++++++++++++++++++++++++.+++
(PID.TID 0000.0001) //      9 ++.+++++++++++++++++++++++++++++++++++++++++++++.+++
(PID.TID 0000.0001) //      8 yy.yyyyyyyyyyyyyyyyyyyyyyyyyyyyyyyyyyyyyyyyyyyyy.yyy
(PID.TID 0000.0001) //      7 ww.wwwwwwwwwwwwwwwwwwwwwwwwwwwwwwwwwwwwwwwwwwwww.www
(PID.TID 0000.0001) //      6 uu.uuuuuuuuuuuuuuuuuuuuuuuuuuuuuuuuuuuuuuuuuuuuu.uuu
(PID.TID 0000.0001) //      5 rr.rrrrrrrrrrrrrrrrrrrrrrrrrrrrrrrrrrrrrrrrrrrrr.rrr
(PID.TID 0000.0001) //      4 nn.nnnnnnnnnnnnnnnnnnnnnnnnnnnnnnnnnnnnnnnnnnnnn.nnn
(PID.TID 0000.0001) //      3 ii.iiiiiiiiiiiiiiiiiiiiiiiiiiiiiiiiiiiiiiiiiiiii.iii
(PID.TID 0000.0001) //      2 ee.eeeeeeeeeeeeeeeeeeeeeeeeeeeeeeeeeeeeeeeeeeeee.eee
(PID.TID 0000.0001) //      1 --.---------------------------------------------.---
(PID.TID 0000.0001) //      0 ....................................................
(PID.TID 0000.0001) //     -1 --.---------------------------------------------.---
(PID.TID 0000.0001) //     -2 ee.eeeeeeeeeeeeeeeeeeeeeeeeeeeeeeeeeeeeeeeeeeeee.eee
(PID.TID 0000.0001) // =======================================================
(PID.TID 0000.0001) // END OF FIELD                                          =
(PID.TID 0000.0001) // =======================================================
(PID.TID 0000.0001) 
(PID.TID 0000.0001) // =======================================================
(PID.TID 0000.0001) // Field hFacW at iteration          0
(PID.TID 0000.0001) // CMIN =          3.470965575787220E-01
(PID.TID 0000.0001) // CMAX =          5.000000000000000E-01
(PID.TID 0000.0001) // CINT =          5.663090460047332E-03
(PID.TID 0000.0001) // SYMBOLS (CMIN->CMAX): -abcdefghijklmnopqrstuvwxyz+
(PID.TID 0000.0001) //                  0.0: .
(PID.TID 0000.0001) // RANGE I (Lo:Hi:Step):(    -2:    43:     1)
(PID.TID 0000.0001) // RANGE J (Lo:Hi:Step):(    23:    -2:    -1)
(PID.TID 0000.0001) // RANGE K (Lo:Hi:Step):(   1:   1:   1)
(PID.TID 0000.0001) // =======================================================
(PID.TID 0000.0001) K =   1
(PID.TID 0000.0001) //                I=7       I=17      I=21      I=31      I=41
(PID.TID 0000.0001) // |--J--|210123456|890123456|890123890|234567890|234567890|23
(PID.TID 0000.0001) //     23 ii..iiiiiiiiiiiiiiiiiiiiiiiiiiiiiiiiiiiiiiiiiiii..ii
(PID.TID 0000.0001) //     22 ee..eeeeeeeeeeeeeeeeeeeeeeeeeeeeeeeeeeeeeeeeeeee..ee
(PID.TID 0000.0001) //     21 --..--------------------------------------------..--
(PID.TID 0000.0001) //     20 ....................................................
(PID.TID 0000.0001) //     19 --..--------------------------------------------..--
(PID.TID 0000.0001) //     18 ee..eeeeeeeeeeeeeeeeeeeeeeeeeeeeeeeeeeeeeeeeeeee..ee
(PID.TID 0000.0001) //     17 ii..iiiiiiiiiiiiiiiiiiiiiiiiiiiiiiiiiiiiiiiiiiii..ii
(PID.TID 0000.0001) //     16 nn..nnnnnnnnnnnnnnnnnnnnnnnnnnnnnnnnnnnnnnnnnnnn..nn
(PID.TID 0000.0001) //     15 rr..rrrrrrrrrrrrrrrrrrrrrrrrrrrrrrrrrrrrrrrrrrrr..rr
(PID.TID 0000.0001) //     14 uu..uuuuuuuuuuuuuuuuuuuuuuuuuuuuuuuuuuuuuuuuuuuu..uu
(PID.TID 0000.0001) //     13 ww..wwwwwwwwwwwwwwwwwwwwwwwwwwwwwwwwwwwwwwwwwwww..ww
(PID.TID 0000.0001) //     12 yy..yyyyyyyyyyyyyyyyyyyyyyyyyyyyyyyyyyyyyyyyyyyy..yy
(PID.TID 0000.0001) //     11 ++..++++++++++++++++++++++++++++++++++++++++++++..++
(PID.TID 0000.0001) //     10 ++..++++++++++++++++++++++++++++++++++++++++++++..++
(PID.TID 0000.0001) //      9 ++..++++++++++++++++++++++++++++++++++++++++++++..++
(PID.TID 0000.0001) //      8 yy..yyyyyyyyyyyyyyyyyyyyyyyyyyyyyyyyyyyyyyyyyyyy..yy
(PID.TID 0000.0001) //      7 ww..wwwwwwwwwwwwwwwwwwwwwwwwwwwwwwwwwwwwwwwwwwww..ww
(PID.TID 0000.0001) //      6 uu..uuuuuuuuuuuuuuuuuuuuuuuuuuuuuuuuuuuuuuuuuuuu..uu
(PID.TID 0000.0001) //      5 rr..rrrrrrrrrrrrrrrrrrrrrrrrrrrrrrrrrrrrrrrrrrrr..rr
(PID.TID 0000.0001) //      4 nn..nnnnnnnnnnnnnnnnnnnnnnnnnnnnnnnnnnnnnnnnnnnn..nn
(PID.TID 0000.0001) //      3 ii..iiiiiiiiiiiiiiiiiiiiiiiiiiiiiiiiiiiiiiiiiiii..ii
(PID.TID 0000.0001) //      2 ee..eeeeeeeeeeeeeeeeeeeeeeeeeeeeeeeeeeeeeeeeeeee..ee
(PID.TID 0000.0001) //      1 --..--------------------------------------------..--
(PID.TID 0000.0001) //      0 ....................................................
(PID.TID 0000.0001) //     -1 --..--------------------------------------------..--
(PID.TID 0000.0001) //     -2 ee..eeeeeeeeeeeeeeeeeeeeeeeeeeeeeeeeeeeeeeeeeeee..ee
(PID.TID 0000.0001) // =======================================================
(PID.TID 0000.0001) // END OF FIELD                                          =
(PID.TID 0000.0001) // =======================================================
(PID.TID 0000.0001) 
(PID.TID 0000.0001) // =======================================================
(PID.TID 0000.0001) // Field hFacS at iteration          0
(PID.TID 0000.0001) // CMIN =          3.470965575787220E-01
(PID.TID 0000.0001) // CMAX =          4.977268839004537E-01
(PID.TID 0000.0001) // CINT =          5.578900974878951E-03
(PID.TID 0000.0001) // SYMBOLS (CMIN->CMAX): -abcdefghijklmnopqrstuvwxyz+
(PID.TID 0000.0001) //                  0.0: .
(PID.TID 0000.0001) // RANGE I (Lo:Hi:Step):(    -2:    43:     1)
(PID.TID 0000.0001) // RANGE J (Lo:Hi:Step):(    23:    -2:    -1)
(PID.TID 0000.0001) // RANGE K (Lo:Hi:Step):(   1:   1:   1)
(PID.TID 0000.0001) // =======================================================
(PID.TID 0000.0001) K =   1
(PID.TID 0000.0001) //                I=7       I=17      I=21      I=31      I=41
(PID.TID 0000.0001) // |--J--|210123456|890123456|890123890|234567890|234567890|23
(PID.TID 0000.0001) //     23 ee.eeeeeeeeeeeeeeeeeeeeeeeeeeeeeeeeeeeeeeeeeeeee.eee
(PID.TID 0000.0001) //     22 --.---------------------------------------------.---
(PID.TID 0000.0001) //     21 ....................................................
(PID.TID 0000.0001) //     20 ....................................................
(PID.TID 0000.0001) //     19 --.---------------------------------------------.---
(PID.TID 0000.0001) //     18 ee.eeeeeeeeeeeeeeeeeeeeeeeeeeeeeeeeeeeeeeeeeeeee.eee
(PID.TID 0000.0001) //     17 jj.jjjjjjjjjjjjjjjjjjjjjjjjjjjjjjjjjjjjjjjjjjjjj.jjj
(PID.TID 0000.0001) //     16 nn.nnnnnnnnnnnnnnnnnnnnnnnnnnnnnnnnnnnnnnnnnnnnn.nnn
(PID.TID 0000.0001) //     15 rr.rrrrrrrrrrrrrrrrrrrrrrrrrrrrrrrrrrrrrrrrrrrrr.rrr
(PID.TID 0000.0001) //     14 uu.uuuuuuuuuuuuuuuuuuuuuuuuuuuuuuuuuuuuuuuuuuuuu.uuu
(PID.TID 0000.0001) //     13 xx.xxxxxxxxxxxxxxxxxxxxxxxxxxxxxxxxxxxxxxxxxxxxx.xxx
(PID.TID 0000.0001) //     12 zz.zzzzzzzzzzzzzzzzzzzzzzzzzzzzzzzzzzzzzzzzzzzzz.zzz
(PID.TID 0000.0001) //     11 ++.+++++++++++++++++++++++++++++++++++++++++++++.+++
(PID.TID 0000.0001) //     10 ++.+++++++++++++++++++++++++++++++++++++++++++++.+++
(PID.TID 0000.0001) //      9 zz.zzzzzzzzzzzzzzzzzzzzzzzzzzzzzzzzzzzzzzzzzzzzz.zzz
(PID.TID 0000.0001) //      8 xx.xxxxxxxxxxxxxxxxxxxxxxxxxxxxxxxxxxxxxxxxxxxxx.xxx
(PID.TID 0000.0001) //      7 uu.uuuuuuuuuuuuuuuuuuuuuuuuuuuuuuuuuuuuuuuuuuuuu.uuu
(PID.TID 0000.0001) //      6 rr.rrrrrrrrrrrrrrrrrrrrrrrrrrrrrrrrrrrrrrrrrrrrr.rrr
(PID.TID 0000.0001) //      5 nn.nnnnnnnnnnnnnnnnnnnnnnnnnnnnnnnnnnnnnnnnnnnnn.nnn
(PID.TID 0000.0001) //      4 jj.jjjjjjjjjjjjjjjjjjjjjjjjjjjjjjjjjjjjjjjjjjjjj.jjj
(PID.TID 0000.0001) //      3 ee.eeeeeeeeeeeeeeeeeeeeeeeeeeeeeeeeeeeeeeeeeeeee.eee
(PID.TID 0000.0001) //      2 --.---------------------------------------------.---
(PID.TID 0000.0001) //      1 ....................................................
(PID.TID 0000.0001) //      0 ....................................................
(PID.TID 0000.0001) //     -1 --.---------------------------------------------.---
(PID.TID 0000.0001) //     -2 ee.eeeeeeeeeeeeeeeeeeeeeeeeeeeeeeeeeeeeeeeeeeeee.eee
(PID.TID 0000.0001) // =======================================================
(PID.TID 0000.0001) // END OF FIELD                                          =
(PID.TID 0000.0001) // =======================================================
(PID.TID 0000.0001) 
(PID.TID 0000.0001) ADDED DIAGS TO LIST
(PID.TID 0000.0001) ------------------------------------------------------------
(PID.TID 0000.0001) DIAGNOSTICS_SET_LEVELS: done
(PID.TID 0000.0001)  Total Nb of available Diagnostics: ndiagt=   111
(PID.TID 0000.0001)  write list of available Diagnostics to file: available_diagnostics.log
(PID.TID 0000.0001) SETDIAG: Allocate  1 x  1 Levels for Diagnostic #   102 SI_Uvel
(PID.TID 0000.0001) SETDIAG: Allocate  1 x  1 Levels for Diagnostic #   103 SI_Vvel
(PID.TID 0000.0001) SETDIAG: Allocate  1 x  1 Levels for Diagnostic #   104 SI_Thick
(PID.TID 0000.0001) SETDIAG: Allocate  1 x  1 Levels for Diagnostic #   105 SI_area
(PID.TID 0000.0001) SETDIAG: Allocate  1 x  1 Levels for Diagnostic #   106 SI_float
(PID.TID 0000.0001) SETDIAG: Allocate  1 x  1 Levels for Diagnostic #   110 SI_selev
(PID.TID 0000.0001)   space allocated for all diagnostics:       6 levels
(PID.TID 0000.0001) DIAGNOSTICS_SET_POINTERS: Set levels for Outp.Stream: land_ice
(PID.TID 0000.0001)  Levels:       1.
(PID.TID 0000.0001) DIAGNOSTICS_SET_POINTERS: done
(PID.TID 0000.0001) ------------------------------------------------------------
(PID.TID 0000.0001) DIAGSTATS_SET_REGIONS: define no region
(PID.TID 0000.0001) ------------------------------------------------------------
(PID.TID 0000.0001)   space allocated for all stats-diags:       0 levels
(PID.TID 0000.0001) DIAGSTATS_SET_POINTERS: done
(PID.TID 0000.0001) ------------------------------------------------------------
(PID.TID 0000.0001) %MON fCori_max                    =   1.0039000000000E-04
(PID.TID 0000.0001) %MON fCori_min                    =   1.0001000000000E-04
(PID.TID 0000.0001) %MON fCori_mean                   =   1.0020000000000E-04
(PID.TID 0000.0001) %MON fCori_sd                     =   1.1532562594671E-07
(PID.TID 0000.0001) %MON fCoriG_max                   =   1.0038000000000E-04
(PID.TID 0000.0001) %MON fCoriG_min                   =   1.0000000000000E-04
(PID.TID 0000.0001) %MON fCoriG_mean                  =   1.0019000000000E-04
(PID.TID 0000.0001) %MON fCoriG_sd                    =   1.1532562594671E-07
(PID.TID 0000.0001) %MON fCoriCos_max                 =   0.0000000000000E+00
(PID.TID 0000.0001) %MON fCoriCos_min                 =   0.0000000000000E+00
(PID.TID 0000.0001) %MON fCoriCos_mean                =   0.0000000000000E+00
(PID.TID 0000.0001) %MON fCoriCos_sd                  =   0.0000000000000E+00
(PID.TID 0000.0001) INI_CG2D: CG2D normalisation factor =  1.1111111111111111E-03
(PID.TID 0000.0001) 
(PID.TID 0000.0001) // =======================================================
(PID.TID 0000.0001) // Model configuration
(PID.TID 0000.0001) // =======================================================
(PID.TID 0000.0001) //
(PID.TID 0000.0001) // "Physical" paramters ( PARM01 in namelist )
(PID.TID 0000.0001) //
(PID.TID 0000.0001) buoyancyRelation = /* Type of relation to get Buoyancy */
(PID.TID 0000.0001)               'OCEANIC'
(PID.TID 0000.0001)     ;
(PID.TID 0000.0001) fluidIsAir   =  /* fluid major constituent is Air */
(PID.TID 0000.0001)                   F
(PID.TID 0000.0001)     ;
(PID.TID 0000.0001) fluidIsWater =  /* fluid major constituent is Water */
(PID.TID 0000.0001)                   T
(PID.TID 0000.0001)     ;
(PID.TID 0000.0001) usingPCoords =  /* use p (or p*) vertical coordinate */
(PID.TID 0000.0001)                   F
(PID.TID 0000.0001)     ;
(PID.TID 0000.0001) usingZCoords =  /* use z (or z*) vertical coordinate */
(PID.TID 0000.0001)                   T
(PID.TID 0000.0001)     ;
(PID.TID 0000.0001) tRef =   /* Reference temperature profile ( oC or K ) */
(PID.TID 0000.0001)                 2.000000000000000E+01       /* K =  1 */
(PID.TID 0000.0001)     ;
(PID.TID 0000.0001) sRef =   /* Reference salinity profile ( psu ) */
(PID.TID 0000.0001)                 1.000000000000000E+01       /* K =  1 */
(PID.TID 0000.0001)     ;
(PID.TID 0000.0001) diffKhT =   /* Laplacian diffusion of heat laterally ( m^2/s ) */
(PID.TID 0000.0001)                 0.000000000000000E+00
(PID.TID 0000.0001)     ;
(PID.TID 0000.0001) diffK4T =   /* Biharmonic diffusion of heat laterally ( m^4/s ) */
(PID.TID 0000.0001)                 0.000000000000000E+00
(PID.TID 0000.0001)     ;
(PID.TID 0000.0001) diffKhS =   /* Laplacian diffusion of salt laterally ( m^2/s ) */
(PID.TID 0000.0001)                 0.000000000000000E+00
(PID.TID 0000.0001)     ;
(PID.TID 0000.0001) diffK4S =   /* Biharmonic diffusion of salt laterally ( m^4/s ) */
(PID.TID 0000.0001)                 0.000000000000000E+00
(PID.TID 0000.0001)     ;
(PID.TID 0000.0001) diffKrNrT = /* vertical profile of vertical diffusion of Temp ( m^2/s )*/
(PID.TID 0000.0001)                 0.000000000000000E+00       /* K =  1 */
(PID.TID 0000.0001)     ;
(PID.TID 0000.0001) diffKrNrS = /* vertical profile of vertical diffusion of Salt ( m^2/s )*/
(PID.TID 0000.0001)                 0.000000000000000E+00       /* K =  1 */
(PID.TID 0000.0001)     ;
(PID.TID 0000.0001) diffKrBL79surf = /* Surface diffusion for Bryan and Lewis 79 ( m^2/s ) */
(PID.TID 0000.0001)                 0.000000000000000E+00
(PID.TID 0000.0001)     ;
(PID.TID 0000.0001) diffKrBL79deep = /* Deep diffusion for Bryan and Lewis 1979 ( m^2/s ) */
(PID.TID 0000.0001)                 0.000000000000000E+00
(PID.TID 0000.0001)     ;
(PID.TID 0000.0001) diffKrBL79scl = /* Depth scale for Bryan and Lewis 1979 ( m ) */
(PID.TID 0000.0001)                 2.000000000000000E+02
(PID.TID 0000.0001)     ;
(PID.TID 0000.0001) diffKrBL79Ho = /* Turning depth for Bryan and Lewis 1979 ( m ) */
(PID.TID 0000.0001)                -2.000000000000000E+03
(PID.TID 0000.0001)     ;
(PID.TID 0000.0001) ivdc_kappa = /* Implicit Vertical Diffusivity for Convection ( m^2/s) */
(PID.TID 0000.0001)                 0.000000000000000E+00
(PID.TID 0000.0001)     ;
(PID.TID 0000.0001) hMixCriteria=  /* Criteria for mixed-layer diagnostic */
(PID.TID 0000.0001)                -8.000000000000000E-01
(PID.TID 0000.0001)     ;
(PID.TID 0000.0001) dRhoSmall =  /* Parameter for mixed-layer diagnostic */
(PID.TID 0000.0001)                 1.000000000000000E-06
(PID.TID 0000.0001)     ;
(PID.TID 0000.0001) hMixSmooth=  /* Smoothing parameter for mixed-layer diagnostic */
(PID.TID 0000.0001)                 0.000000000000000E+00
(PID.TID 0000.0001)     ;
(PID.TID 0000.0001) eosType =  /* Type of Equation of State */
(PID.TID 0000.0001)               'LINEAR'
(PID.TID 0000.0001)     ;
(PID.TID 0000.0001) tAlpha = /* Linear EOS thermal expansion coefficient ( 1/oC ) */
(PID.TID 0000.0001)                 2.000000000000000E-04
(PID.TID 0000.0001)     ;
(PID.TID 0000.0001) sBeta  = /* Linear EOS haline contraction coefficient ( 1/psu ) */
(PID.TID 0000.0001)                 7.400000000000000E-04
(PID.TID 0000.0001)     ;
(PID.TID 0000.0001) rhoNil    = /* Reference density for Linear EOS ( kg/m^3 ) */
(PID.TID 0000.0001)                 9.998000000000000E+02
(PID.TID 0000.0001)     ;
(PID.TID 0000.0001) celsius2K = /* 0 degree Celsius converted to Kelvin ( K ) */
(PID.TID 0000.0001)                 2.731500000000000E+02
(PID.TID 0000.0001)     ;
(PID.TID 0000.0001) rhoConst  = /* Reference density (Boussinesq)  ( kg/m^3 ) */
(PID.TID 0000.0001)                 9.998000000000000E+02
(PID.TID 0000.0001)     ;
(PID.TID 0000.0001) rhoFacC = /* normalized Reference density @ cell-Center (-) */
(PID.TID 0000.0001)                 1.000000000000000E+00       /* K =  1 */
(PID.TID 0000.0001)     ;
(PID.TID 0000.0001) rhoFacF = /* normalized Reference density @ W-Interface (-) */
(PID.TID 0000.0001)     2 @  1.000000000000000E+00              /* K =  1:  2 */
(PID.TID 0000.0001)     ;
(PID.TID 0000.0001) rhoConstFresh = /* Fresh-water reference density ( kg/m^3 ) */
(PID.TID 0000.0001)                 9.998000000000000E+02
(PID.TID 0000.0001)     ;
(PID.TID 0000.0001) gravity =   /* Gravitational acceleration ( m/s^2 ) */
(PID.TID 0000.0001)                 9.810000000000000E+00
(PID.TID 0000.0001)     ;
(PID.TID 0000.0001) gBaro =   /* Barotropic gravity ( m/s^2 ) */
(PID.TID 0000.0001)                 9.810000000000000E+00
(PID.TID 0000.0001)     ;
(PID.TID 0000.0001) rotationPeriod =   /* Rotation Period ( s ) */
(PID.TID 0000.0001)                 8.616400000000000E+04
(PID.TID 0000.0001)     ;
(PID.TID 0000.0001) omega =   /* Angular velocity ( rad/s ) */
(PID.TID 0000.0001)                 7.292123516990375E-05
(PID.TID 0000.0001)     ;
(PID.TID 0000.0001) f0 =   /* Reference coriolis parameter ( 1/s ) */
(PID.TID 0000.0001)                 1.000000000000000E-04
(PID.TID 0000.0001)     ;
(PID.TID 0000.0001) beta =   /* Beta ( 1/(m.s) ) */
(PID.TID 0000.0001)                 9.999999999999999E-12
(PID.TID 0000.0001)     ;
(PID.TID 0000.0001) fPrime =   /* Second coriolis parameter ( 1/s ) */
(PID.TID 0000.0001)                 0.000000000000000E+00
(PID.TID 0000.0001)     ;
(PID.TID 0000.0001) rigidLid =   /* Rigid lid on/off flag */
(PID.TID 0000.0001)                   F
(PID.TID 0000.0001)     ;
(PID.TID 0000.0001) implicitFreeSurface =   /* Implicit free surface on/off flag */
(PID.TID 0000.0001)                   T
(PID.TID 0000.0001)     ;
(PID.TID 0000.0001) freeSurfFac =   /* Implicit free surface factor */
(PID.TID 0000.0001)                 1.000000000000000E+00
(PID.TID 0000.0001)     ;
(PID.TID 0000.0001) implicSurfPress =  /* Surface Pressure implicit factor (0-1)*/
(PID.TID 0000.0001)                 1.000000000000000E+00
(PID.TID 0000.0001)     ;
(PID.TID 0000.0001) implicDiv2Dflow =  /* Barot. Flow Div. implicit factor (0-1)*/
(PID.TID 0000.0001)                 1.000000000000000E+00
(PID.TID 0000.0001)     ;
(PID.TID 0000.0001) uniformLin_PhiSurf = /* use uniform Bo_surf on/off flag*/
(PID.TID 0000.0001)                   T
(PID.TID 0000.0001)     ;
(PID.TID 0000.0001) uniformFreeSurfLev = /* free-surface level-index is uniform */
(PID.TID 0000.0001)                   T
(PID.TID 0000.0001)     ;
(PID.TID 0000.0001) hFacMin =   /* minimum partial cell factor (hFac) */
(PID.TID 0000.0001)                 5.000000000000000E-02
(PID.TID 0000.0001)     ;
(PID.TID 0000.0001) hFacMinDr = /* minimum partial cell thickness ( m) */
(PID.TID 0000.0001)                 5.000000000000000E-02
(PID.TID 0000.0001)     ;
(PID.TID 0000.0001) exactConserv =  /* Exact Volume Conservation on/off flag*/
(PID.TID 0000.0001)                   F
(PID.TID 0000.0001)     ;
(PID.TID 0000.0001) linFSConserveTr = /* Tracer correction for Lin Free Surface on/off flag*/
(PID.TID 0000.0001)                   F
(PID.TID 0000.0001)     ;
(PID.TID 0000.0001) nonlinFreeSurf = /* Non-linear Free Surf. options (-1,0,1,2,3)*/
(PID.TID 0000.0001)                       0
(PID.TID 0000.0001)      -1,0= Off ; 1,2,3= On, 2=+rescale gU,gV, 3=+update cg2d solv.
(PID.TID 0000.0001)     ;
(PID.TID 0000.0001) hFacInf =   /* lower threshold for hFac (nonlinFreeSurf only)*/
(PID.TID 0000.0001)                 2.000000000000000E-01
(PID.TID 0000.0001)     ;
(PID.TID 0000.0001) hFacSup =   /* upper threshold for hFac (nonlinFreeSurf only)*/
(PID.TID 0000.0001)                 2.000000000000000E+00
(PID.TID 0000.0001)     ;
(PID.TID 0000.0001) select_rStar = /* r* Vertical coord. options (=0 r coord.; >0 uses r*)*/
(PID.TID 0000.0001)                       0
(PID.TID 0000.0001)     ;
(PID.TID 0000.0001) useRealFreshWaterFlux = /* Real Fresh Water Flux on/off flag*/
(PID.TID 0000.0001)                   F
(PID.TID 0000.0001)     ;
(PID.TID 0000.0001) temp_EvPrRn = /* Temp. of Evap/Prec/R (UNSET=use local T)(oC)*/
(PID.TID 0000.0001)                 1.234567000000000E+05
(PID.TID 0000.0001)     ;
(PID.TID 0000.0001) salt_EvPrRn = /* Salin. of Evap/Prec/R (UNSET=use local S)(psu)*/
(PID.TID 0000.0001)                 0.000000000000000E+00
(PID.TID 0000.0001)     ;
(PID.TID 0000.0001) selectAddFluid = /* option for mass source/sink of fluid (=0: off) */
(PID.TID 0000.0001)                       0
(PID.TID 0000.0001)     ;
(PID.TID 0000.0001) temp_addMass = /* Temp. of addMass array (UNSET=use local T)(oC)*/
(PID.TID 0000.0001)                 1.234567000000000E+05
(PID.TID 0000.0001)     ;
(PID.TID 0000.0001) salt_addMass = /* Salin. of addMass array (UNSET=use local S)(psu)*/
(PID.TID 0000.0001)                 0.000000000000000E+00
(PID.TID 0000.0001)     ;
(PID.TID 0000.0001) convertFW2Salt = /* convert F.W. Flux to Salt Flux (-1=use local S)(psu)*/
(PID.TID 0000.0001)                 3.500000000000000E+01
(PID.TID 0000.0001)     ;
(PID.TID 0000.0001) use3Dsolver = /* use 3-D pressure solver on/off flag */
(PID.TID 0000.0001)                   F
(PID.TID 0000.0001)     ;
(PID.TID 0000.0001) nonHydrostatic =  /* Non-Hydrostatic on/off flag */
(PID.TID 0000.0001)                   F
(PID.TID 0000.0001)     ;
(PID.TID 0000.0001) nh_Am2 = /* Non-Hydrostatic terms scaling factor */
(PID.TID 0000.0001)                 1.000000000000000E+00
(PID.TID 0000.0001)     ;
(PID.TID 0000.0001) implicitNHPress = /* Non-Hyd Pressure implicit factor (0-1)*/
(PID.TID 0000.0001)                 1.000000000000000E+00
(PID.TID 0000.0001)     ;
(PID.TID 0000.0001) selectNHfreeSurf = /* Non-Hyd (free-)Surface option */
(PID.TID 0000.0001)                       0
(PID.TID 0000.0001)     ;
(PID.TID 0000.0001) quasiHydrostatic = /* Quasi-Hydrostatic on/off flag */
(PID.TID 0000.0001)                   F
(PID.TID 0000.0001)     ;
(PID.TID 0000.0001) calc_wVelocity = /* vertical velocity calculation on/off flag */
(PID.TID 0000.0001)                   F
(PID.TID 0000.0001)     ;
(PID.TID 0000.0001) momStepping =  /* Momentum equation on/off flag */
(PID.TID 0000.0001)                   F
(PID.TID 0000.0001)     ;
(PID.TID 0000.0001) vectorInvariantMomentum= /* Vector-Invariant Momentum on/off */
(PID.TID 0000.0001)                   F
(PID.TID 0000.0001)     ;
(PID.TID 0000.0001) momAdvection =  /* Momentum advection on/off flag */
(PID.TID 0000.0001)                   F
(PID.TID 0000.0001)     ;
(PID.TID 0000.0001) momViscosity =  /* Momentum viscosity on/off flag */
(PID.TID 0000.0001)                   F
(PID.TID 0000.0001)     ;
(PID.TID 0000.0001) momImplVertAdv= /* Momentum implicit vert. advection on/off*/
(PID.TID 0000.0001)                   F
(PID.TID 0000.0001)     ;
(PID.TID 0000.0001) implicitViscosity = /* Implicit viscosity on/off flag */
(PID.TID 0000.0001)                   F
(PID.TID 0000.0001)     ;
(PID.TID 0000.0001) metricTerms =  /* metric-Terms on/off flag */
(PID.TID 0000.0001)                   F
(PID.TID 0000.0001)     ;
(PID.TID 0000.0001) useNHMTerms = /* Non-Hydrostatic Metric-Terms on/off */
(PID.TID 0000.0001)                   F
(PID.TID 0000.0001)     ;
(PID.TID 0000.0001) selectCoriMap = /* Coriolis Map options (0,1,2,3)*/
(PID.TID 0000.0001)                       1
(PID.TID 0000.0001)     0= f-Plane ; 1= Beta-Plane ; 2= Spherical ; 3= read from file
(PID.TID 0000.0001)     ;
(PID.TID 0000.0001) use3dCoriolis = /* 3-D Coriolis on/off flag */
(PID.TID 0000.0001)                   F
(PID.TID 0000.0001)     ;
(PID.TID 0000.0001) useCoriolis =  /* Coriolis on/off flag */
(PID.TID 0000.0001)                   F
(PID.TID 0000.0001)     ;
(PID.TID 0000.0001) useCDscheme =  /* CD scheme on/off flag */
(PID.TID 0000.0001)                   F
(PID.TID 0000.0001)     ;
(PID.TID 0000.0001) useEnergyConservingCoriolis= /* Flx-Form Coriolis scheme flag */
(PID.TID 0000.0001)                   F
(PID.TID 0000.0001)     ;
(PID.TID 0000.0001) useJamartWetPoints= /* Coriolis WetPoints method flag */
(PID.TID 0000.0001)                   F
(PID.TID 0000.0001)     ;
(PID.TID 0000.0001) useJamartMomAdv= /* V.I Non-linear terms Jamart flag */
(PID.TID 0000.0001)                   F
(PID.TID 0000.0001)     ;
(PID.TID 0000.0001) useAbsVorticity= /* V.I Works with f+zeta in Coriolis */
(PID.TID 0000.0001)                   F
(PID.TID 0000.0001)     ;
(PID.TID 0000.0001) selectVortScheme= /* V.I Scheme selector for Vorticity-Term */
(PID.TID 0000.0001)               123456789
(PID.TID 0000.0001)    = 0 : enstrophy (Shallow-Water Eq.) conserving scheme by Sadourny, JAS 75
(PID.TID 0000.0001)    = 1 : same as 0 with modified hFac
(PID.TID 0000.0001)    = 2 : energy conserving scheme (used by Sadourny in JAS 75 paper)
(PID.TID 0000.0001)    = 3 : energy (general) and enstrophy (2D, nonDiv.) conserving scheme
(PID.TID 0000.0001)          from Sadourny (Burridge & Haseler, ECMWF Rep.4, 1977)
(PID.TID 0000.0001)     ;
(PID.TID 0000.0001) upwindVorticity= /* V.I Upwind bias vorticity flag */
(PID.TID 0000.0001)                   F
(PID.TID 0000.0001)     ;
(PID.TID 0000.0001) highOrderVorticity= /* V.I High order vort. advect. flag */
(PID.TID 0000.0001)                   F
(PID.TID 0000.0001)     ;
(PID.TID 0000.0001) upwindShear= /* V.I Upwind vertical Shear advection flag */
(PID.TID 0000.0001)                   F
(PID.TID 0000.0001)     ;
(PID.TID 0000.0001) selectKEscheme= /* V.I Kinetic Energy scheme selector */
(PID.TID 0000.0001)                       0
(PID.TID 0000.0001)     ;
(PID.TID 0000.0001) momForcing =  /* Momentum forcing on/off flag */
(PID.TID 0000.0001)                   F
(PID.TID 0000.0001)     ;
(PID.TID 0000.0001) momPressureForcing =  /* Momentum pressure term on/off flag */
(PID.TID 0000.0001)                   F
(PID.TID 0000.0001)     ;
(PID.TID 0000.0001) implicitIntGravWave= /* Implicit Internal Gravity Wave flag */
(PID.TID 0000.0001)                   F
(PID.TID 0000.0001)     ;
(PID.TID 0000.0001) staggerTimeStep =    /* Stagger time stepping on/off flag */
(PID.TID 0000.0001)                   F
(PID.TID 0000.0001)     ;
(PID.TID 0000.0001) doResetHFactors = /* reset thickness factors @ each time-step */
(PID.TID 0000.0001)                   F
(PID.TID 0000.0001)     ;
(PID.TID 0000.0001) multiDimAdvection =  /* enable/disable Multi-Dim Advection */
(PID.TID 0000.0001)                   T
(PID.TID 0000.0001)     ;
(PID.TID 0000.0001) useMultiDimAdvec =   /* Multi-Dim Advection is/is-not used */
(PID.TID 0000.0001)                   F
(PID.TID 0000.0001)     ;
(PID.TID 0000.0001) implicitDiffusion = /* Implicit Diffusion on/off flag */
(PID.TID 0000.0001)                   F
(PID.TID 0000.0001)     ;
(PID.TID 0000.0001) tempStepping =  /* Temperature equation on/off flag */
(PID.TID 0000.0001)                   F
(PID.TID 0000.0001)     ;
(PID.TID 0000.0001) tempAdvection = /* Temperature advection on/off flag */
(PID.TID 0000.0001)                   F
(PID.TID 0000.0001)     ;
(PID.TID 0000.0001) tempImplVertAdv = /* Temp. implicit vert. advection on/off */
(PID.TID 0000.0001)                   F
(PID.TID 0000.0001)     ;
(PID.TID 0000.0001) tempForcing  =  /* Temperature forcing on/off flag */
(PID.TID 0000.0001)                   F
(PID.TID 0000.0001)     ;
(PID.TID 0000.0001) doThetaClimRelax = /* apply SST relaxation on/off flag */
(PID.TID 0000.0001)                   F
(PID.TID 0000.0001)     ;
(PID.TID 0000.0001) tempIsActiveTr = /* Temp. is a dynamically Active Tracer */
(PID.TID 0000.0001)                   F
(PID.TID 0000.0001)     ;
(PID.TID 0000.0001) saltStepping =  /* Salinity equation on/off flag */
(PID.TID 0000.0001)                   F
(PID.TID 0000.0001)     ;
(PID.TID 0000.0001) saltAdvection = /* Salinity advection on/off flag */
(PID.TID 0000.0001)                   F
(PID.TID 0000.0001)     ;
(PID.TID 0000.0001) saltImplVertAdv = /* Sali. implicit vert. advection on/off */
(PID.TID 0000.0001)                   F
(PID.TID 0000.0001)     ;
(PID.TID 0000.0001) saltForcing  =  /* Salinity forcing on/off flag */
(PID.TID 0000.0001)                   F
(PID.TID 0000.0001)     ;
(PID.TID 0000.0001) doSaltClimRelax = /* apply SSS relaxation on/off flag */
(PID.TID 0000.0001)                   F
(PID.TID 0000.0001)     ;
(PID.TID 0000.0001) saltIsActiveTr = /* Salt  is a dynamically Active Tracer */
(PID.TID 0000.0001)                   F
(PID.TID 0000.0001)     ;
(PID.TID 0000.0001)  readBinaryPrec = /* Precision used for reading binary files */
(PID.TID 0000.0001)                      64
(PID.TID 0000.0001)     ;
(PID.TID 0000.0001) writeBinaryPrec = /* Precision used for writing binary files */
(PID.TID 0000.0001)                      64
(PID.TID 0000.0001)     ;
(PID.TID 0000.0001)  globalFiles = /* write "global" (=not per tile) files */
(PID.TID 0000.0001)                   F
(PID.TID 0000.0001)     ;
(PID.TID 0000.0001)  useSingleCpuIO = /* only master MPI process does I/O */
(PID.TID 0000.0001)                   F
(PID.TID 0000.0001)     ;
(PID.TID 0000.0001) /* debLev[*]  : level of debug & auxiliary message printing */
(PID.TID 0000.0001) debLevZero =  0 ; /* level of disabled aux. msg printing */
(PID.TID 0000.0001)    debLevA =  1 ; /* level of minimum  aux. msg printing */
(PID.TID 0000.0001)    debLevB =  2 ; /* level of low aux. print (report read-file opening)*/
(PID.TID 0000.0001)    debLevC =  3 ; /* level of moderate debug prt (most pkgs debug msg) */
(PID.TID 0000.0001)    debLevD =  4 ; /* level of enhanced debug prt (add DEBUG_STATS prt) */
(PID.TID 0000.0001)    debLevE =  5 ; /* level of extensive debug printing */
(PID.TID 0000.0001) debugLevel =  /* select debug printing level */
(PID.TID 0000.0001)                       4
(PID.TID 0000.0001)     ;
(PID.TID 0000.0001) //
(PID.TID 0000.0001) // Elliptic solver(s) paramters ( PARM02 in namelist )
(PID.TID 0000.0001) //
(PID.TID 0000.0001) cg2dMaxIters =   /* Upper limit on 2d con. grad iterations  */
(PID.TID 0000.0001)                    1000
(PID.TID 0000.0001)     ;
(PID.TID 0000.0001) cg2dChkResFreq =   /* 2d con. grad convergence test frequency */
(PID.TID 0000.0001)                       1
(PID.TID 0000.0001)     ;
(PID.TID 0000.0001) cg2dUseMinResSol= /* use cg2d last-iter(=0) / min-resid.(=1) solution */
(PID.TID 0000.0001)                       0
(PID.TID 0000.0001)     ;
(PID.TID 0000.0001) cg2dTargetResidual =   /* 2d con. grad target residual  */
(PID.TID 0000.0001)                 1.000000000000000E-10
(PID.TID 0000.0001)     ;
(PID.TID 0000.0001) cg2dTargetResWunit =   /* CG2d target residual [W units] */
(PID.TID 0000.0001)                -1.000000000000000E+00
(PID.TID 0000.0001)     ;
(PID.TID 0000.0001) cg2dPreCondFreq =   /* Freq. for updating cg2d preconditioner */
(PID.TID 0000.0001)                       1
(PID.TID 0000.0001)     ;
(PID.TID 0000.0001) useSRCGSolver =  /* use single reduction CG solver(s) */
(PID.TID 0000.0001)                   F
(PID.TID 0000.0001)     ;
(PID.TID 0000.0001) printResidualFreq = /* Freq. for printing CG residual */
(PID.TID 0000.0001)                       0
(PID.TID 0000.0001)     ;
(PID.TID 0000.0001) //
(PID.TID 0000.0001) // Time stepping paramters ( PARM03 in namelist )
(PID.TID 0000.0001) //
(PID.TID 0000.0001) deltaTMom =   /* Momentum equation timestep ( s ) */
(PID.TID 0000.0001)                 6.307200000000000E+06
(PID.TID 0000.0001)     ;
(PID.TID 0000.0001) deltaTFreeSurf = /* FreeSurface equation timestep ( s ) */
(PID.TID 0000.0001)                 6.307200000000000E+06
(PID.TID 0000.0001)     ;
(PID.TID 0000.0001) dTtracerLev =  /* Tracer equation timestep ( s ) */
(PID.TID 0000.0001)                 6.307200000000000E+06       /* K =  1 */
(PID.TID 0000.0001)     ;
(PID.TID 0000.0001) deltaTClock  =   /* Model clock timestep ( s ) */
(PID.TID 0000.0001)                 6.307200000000000E+06
(PID.TID 0000.0001)     ;
(PID.TID 0000.0001) cAdjFreq =   /* Convective adjustment interval ( s ) */
(PID.TID 0000.0001)                 0.000000000000000E+00
(PID.TID 0000.0001)     ;
(PID.TID 0000.0001) momForcingOutAB = /* =1: take Momentum Forcing out of Adams-Bash. stepping */
(PID.TID 0000.0001)                       0
(PID.TID 0000.0001)     ;
(PID.TID 0000.0001) tracForcingOutAB = /* =1: take T,S,pTr Forcing out of Adams-Bash. stepping */
(PID.TID 0000.0001)                       0
(PID.TID 0000.0001)     ;
(PID.TID 0000.0001) momDissip_In_AB = /* put Dissipation Tendency in Adams-Bash. stepping */
(PID.TID 0000.0001)                   T
(PID.TID 0000.0001)     ;
(PID.TID 0000.0001) doAB_onGtGs = /* apply AB on Tendencies (rather than on T,S)*/
(PID.TID 0000.0001)                   T
(PID.TID 0000.0001)     ;
(PID.TID 0000.0001) abEps =   /* Adams-Bashforth-2 stabilizing weight */
(PID.TID 0000.0001)                 1.000000000000000E-02
(PID.TID 0000.0001)     ;
(PID.TID 0000.0001) pickupStrictlyMatch= /* stop if pickup do not strictly match */
(PID.TID 0000.0001)                   T
(PID.TID 0000.0001)     ;
(PID.TID 0000.0001) nIter0   =   /* Run starting timestep number */
(PID.TID 0000.0001)                       0
(PID.TID 0000.0001)     ;
(PID.TID 0000.0001) nTimeSteps = /* Number of timesteps */
(PID.TID 0000.0001)                      10
(PID.TID 0000.0001)     ;
(PID.TID 0000.0001) nEndIter =   /* Run ending timestep number */
(PID.TID 0000.0001)                      10
(PID.TID 0000.0001)     ;
(PID.TID 0000.0001) baseTime =   /* Model base time ( s ) */
(PID.TID 0000.0001)                 0.000000000000000E+00
(PID.TID 0000.0001)     ;
(PID.TID 0000.0001) startTime =  /* Run start time ( s ) */
(PID.TID 0000.0001)                 0.000000000000000E+00
(PID.TID 0000.0001)     ;
(PID.TID 0000.0001) endTime  =   /* Integration ending time ( s ) */
(PID.TID 0000.0001)                 6.307200000000000E+07
(PID.TID 0000.0001)     ;
(PID.TID 0000.0001) pChkPtFreq = /* Permanent restart/pickup file interval ( s ) */
(PID.TID 0000.0001)                 0.000000000000000E+00
(PID.TID 0000.0001)     ;
(PID.TID 0000.0001) chkPtFreq  = /* Rolling restart/pickup file interval ( s ) */
(PID.TID 0000.0001)                 0.000000000000000E+00
(PID.TID 0000.0001)     ;
(PID.TID 0000.0001) pickup_write_mdsio =   /* Model IO flag. */
(PID.TID 0000.0001)                   T
(PID.TID 0000.0001)     ;
(PID.TID 0000.0001) pickup_read_mdsio =   /* Model IO flag. */
(PID.TID 0000.0001)                   T
(PID.TID 0000.0001)     ;
(PID.TID 0000.0001) pickup_write_immed =   /* Model IO flag. */
(PID.TID 0000.0001)                   F
(PID.TID 0000.0001)     ;
(PID.TID 0000.0001) writePickupAtEnd =   /* Model IO flag. */
(PID.TID 0000.0001)                   T
(PID.TID 0000.0001)     ;
(PID.TID 0000.0001) dumpFreq =   /* Model state write out interval ( s ). */
(PID.TID 0000.0001)                 0.000000000000000E+00
(PID.TID 0000.0001)     ;
(PID.TID 0000.0001) dumpInitAndLast= /* write out Initial & Last iter. model state */
(PID.TID 0000.0001)                   T
(PID.TID 0000.0001)     ;
(PID.TID 0000.0001) snapshot_mdsio =   /* Model IO flag. */
(PID.TID 0000.0001)                   T
(PID.TID 0000.0001)     ;
(PID.TID 0000.0001) monitorFreq =   /* Monitor output interval ( s ). */
(PID.TID 0000.0001)                 6.307200000000000E+07
(PID.TID 0000.0001)     ;
(PID.TID 0000.0001) monitorSelect = /* select group of variables to monitor */
(PID.TID 0000.0001)                       1
(PID.TID 0000.0001)     ;
(PID.TID 0000.0001) monitor_stdio =   /* Model IO flag. */
(PID.TID 0000.0001)                   T
(PID.TID 0000.0001)     ;
(PID.TID 0000.0001) externForcingPeriod =   /* forcing period (s) */
(PID.TID 0000.0001)                 0.000000000000000E+00
(PID.TID 0000.0001)     ;
(PID.TID 0000.0001) externForcingCycle =   /* period of the cyle (s). */
(PID.TID 0000.0001)                 0.000000000000000E+00
(PID.TID 0000.0001)     ;
(PID.TID 0000.0001) tauThetaClimRelax =   /* relaxation time scale (s) */
(PID.TID 0000.0001)                 0.000000000000000E+00
(PID.TID 0000.0001)     ;
(PID.TID 0000.0001) tauSaltClimRelax =   /* relaxation time scale (s) */
(PID.TID 0000.0001)                 0.000000000000000E+00
(PID.TID 0000.0001)     ;
(PID.TID 0000.0001) latBandClimRelax =   /* max. Lat. where relaxation */
(PID.TID 0000.0001)                 1.200000000000000E+05
(PID.TID 0000.0001)     ;
(PID.TID 0000.0001) //
(PID.TID 0000.0001) // Gridding paramters ( PARM04 in namelist )
(PID.TID 0000.0001) //
(PID.TID 0000.0001) usingCartesianGrid = /* Cartesian coordinates flag ( True/False ) */
(PID.TID 0000.0001)                   T
(PID.TID 0000.0001)     ;
(PID.TID 0000.0001) usingCylindricalGrid = /* Cylindrical coordinates flag ( True/False ) */
(PID.TID 0000.0001)                   F
(PID.TID 0000.0001)     ;
(PID.TID 0000.0001) usingSphericalPolarGrid = /* Spherical coordinates flag ( True/False ) */
(PID.TID 0000.0001)                   F
(PID.TID 0000.0001)     ;
(PID.TID 0000.0001) usingCurvilinearGrid = /* Curvilinear coordinates flag ( True/False ) */
(PID.TID 0000.0001)                   F
(PID.TID 0000.0001)     ;
(PID.TID 0000.0001) selectSigmaCoord = /* Hybrid-Sigma Vert. Coordinate option */
(PID.TID 0000.0001)                       0
(PID.TID 0000.0001)     ;
(PID.TID 0000.0001) Ro_SeaLevel = /* r(1) ( units of r ==  m ) */
(PID.TID 0000.0001)                 0.000000000000000E+00
(PID.TID 0000.0001)     ;
(PID.TID 0000.0001) rSigmaBnd = /* r/sigma transition ( units of r ==  m ) */
(PID.TID 0000.0001)                 1.234567000000000E+05
(PID.TID 0000.0001)     ;
(PID.TID 0000.0001) rkSign =   /* index orientation relative to vertical coordinate */
(PID.TID 0000.0001)                -1.000000000000000E+00
(PID.TID 0000.0001)     ;
(PID.TID 0000.0001) gravitySign = /* gravity orientation relative to vertical coordinate */
(PID.TID 0000.0001)                -1.000000000000000E+00
(PID.TID 0000.0001)     ;
(PID.TID 0000.0001) mass2rUnit = /* convert mass per unit area [kg/m2] to r-units [m] */
(PID.TID 0000.0001)                 1.000200040008002E-03
(PID.TID 0000.0001)     ;
(PID.TID 0000.0001) rUnit2mass = /* convert r-units [m] to mass per unit area [kg/m2] */
(PID.TID 0000.0001)                 9.998000000000000E+02
(PID.TID 0000.0001)     ;
(PID.TID 0000.0001) drC =   /* C spacing ( units of r ) */
(PID.TID 0000.0001)     2 @  9.000000000000000E+02              /* K =  1:  2 */
(PID.TID 0000.0001)     ;
(PID.TID 0000.0001) drF =   /* W spacing ( units of r ) */
(PID.TID 0000.0001)                 1.800000000000000E+03       /* K =  1 */
(PID.TID 0000.0001)     ;
(PID.TID 0000.0001) delX = /* U spacing ( m - cartesian, degrees - spherical ) */
(PID.TID 0000.0001)    40 @  2.000000000000000E+03              /* I =  1: 40 */
(PID.TID 0000.0001)     ;
(PID.TID 0000.0001) delY = /* V spacing ( m - cartesian, degrees - spherical ) */
(PID.TID 0000.0001)    20 @  2.000000000000000E+03              /* J =  1: 20 */
(PID.TID 0000.0001)     ;
(PID.TID 0000.0001) xgOrigin = /* X-axis origin of West  edge (cartesian: m, lat-lon: deg) */
(PID.TID 0000.0001)                 0.000000000000000E+00
(PID.TID 0000.0001)     ;
(PID.TID 0000.0001) ygOrigin = /* Y-axis origin of South edge (cartesian: m, lat-lon: deg) */
(PID.TID 0000.0001)                 0.000000000000000E+00
(PID.TID 0000.0001)     ;
(PID.TID 0000.0001) rSphere =  /* Radius ( ignored - cartesian, m - spherical ) */
(PID.TID 0000.0001)                 6.370000000000000E+06
(PID.TID 0000.0001)     ;
(PID.TID 0000.0001) deepAtmosphere = /* Deep/Shallow Atmosphere flag (True/False) */
(PID.TID 0000.0001)                   F
(PID.TID 0000.0001)     ;
(PID.TID 0000.0001) xC =  /* xC(:,1,:,1) : P-point X coord ( deg. or m if cartesian) */
(PID.TID 0000.0001)                 1.000000000000000E+03,      /* I =  1 */
(PID.TID 0000.0001)                 3.000000000000000E+03,      /* I =  2 */
(PID.TID 0000.0001)                 5.000000000000000E+03,      /* I =  3 */
(PID.TID 0000.0001)                 7.000000000000000E+03,      /* I =  4 */
(PID.TID 0000.0001)                 9.000000000000000E+03,      /* I =  5 */
(PID.TID 0000.0001)                 1.100000000000000E+04,      /* I =  6 */
(PID.TID 0000.0001)                 1.300000000000000E+04,      /* I =  7 */
(PID.TID 0000.0001)                 1.500000000000000E+04,      /* I =  8 */
(PID.TID 0000.0001)                 1.700000000000000E+04,      /* I =  9 */
(PID.TID 0000.0001)                 1.900000000000000E+04,      /* I = 10 */
(PID.TID 0000.0001)                 2.100000000000000E+04,      /* I = 11 */
(PID.TID 0000.0001)                 2.300000000000000E+04,      /* I = 12 */
(PID.TID 0000.0001)                 2.500000000000000E+04,      /* I = 13 */
(PID.TID 0000.0001)                 2.700000000000000E+04,      /* I = 14 */
(PID.TID 0000.0001)                 2.900000000000000E+04,      /* I = 15 */
(PID.TID 0000.0001)                 3.100000000000000E+04,      /* I = 16 */
(PID.TID 0000.0001)                 3.300000000000000E+04,      /* I = 17 */
(PID.TID 0000.0001)                 3.500000000000000E+04,      /* I = 18 */
(PID.TID 0000.0001)                 3.700000000000000E+04,      /* I = 19 */
(PID.TID 0000.0001)                 3.900000000000000E+04,      /* I = 20 */
(PID.TID 0000.0001)                 4.100000000000000E+04,      /* I = 21 */
(PID.TID 0000.0001)                 4.300000000000000E+04,      /* I = 22 */
(PID.TID 0000.0001)                 4.500000000000000E+04,      /* I = 23 */
(PID.TID 0000.0001)                 4.700000000000000E+04,      /* I = 24 */
(PID.TID 0000.0001)                 4.900000000000000E+04,      /* I = 25 */
(PID.TID 0000.0001)                 5.100000000000000E+04,      /* I = 26 */
(PID.TID 0000.0001)                 5.300000000000000E+04,      /* I = 27 */
(PID.TID 0000.0001)                 5.500000000000000E+04,      /* I = 28 */
(PID.TID 0000.0001)                 5.700000000000000E+04,      /* I = 29 */
(PID.TID 0000.0001)                 5.900000000000000E+04,      /* I = 30 */
(PID.TID 0000.0001)                 6.100000000000000E+04,      /* I = 31 */
(PID.TID 0000.0001)                 6.300000000000000E+04,      /* I = 32 */
(PID.TID 0000.0001)                 6.500000000000000E+04,      /* I = 33 */
(PID.TID 0000.0001)                 6.700000000000000E+04,      /* I = 34 */
(PID.TID 0000.0001)                 6.900000000000000E+04,      /* I = 35 */
(PID.TID 0000.0001)                 7.100000000000000E+04,      /* I = 36 */
(PID.TID 0000.0001)                 7.300000000000000E+04,      /* I = 37 */
(PID.TID 0000.0001)                 7.500000000000000E+04,      /* I = 38 */
(PID.TID 0000.0001)                 7.700000000000000E+04,      /* I = 39 */
(PID.TID 0000.0001)                 7.900000000000000E+04       /* I = 40 */
(PID.TID 0000.0001)     ;
(PID.TID 0000.0001) yC =  /* yC(1,:,1,:) : P-point Y coord ( deg. or m if cartesian) */
(PID.TID 0000.0001)                 1.000000000000000E+03,      /* J =  1 */
(PID.TID 0000.0001)                 3.000000000000000E+03,      /* J =  2 */
(PID.TID 0000.0001)                 5.000000000000000E+03,      /* J =  3 */
(PID.TID 0000.0001)                 7.000000000000000E+03,      /* J =  4 */
(PID.TID 0000.0001)                 9.000000000000000E+03,      /* J =  5 */
[...]
(PID.TID 0000.0001) STREAMICE_FP_ERROR =  1.19674928873613E+02
(PID.TID 0000.0001) err/err_init  0.3975633E-01
(PID.TID 0000.0001) CONJ GRAD INIT RESID,  0.3990076E+12
(PID.TID 0000.0001) BEGINNING MAIN CG LOOP
(PID.TID 0000.0001) streamice linear solve number    8  101 iterations
(PID.TID 0000.0001) STREAMICE_FP_ERROR =  7.97285538741339E+01
(PID.TID 0000.0001) err/err_init  0.2428449E-01
(PID.TID 0000.0001) CONJ GRAD INIT RESID,  0.2474350E+12
(PID.TID 0000.0001) BEGINNING MAIN CG LOOP
(PID.TID 0000.0001) streamice linear solve number    9   98 iterations
(PID.TID 0000.0001) STREAMICE_FP_ERROR =  5.16055880829981E+01
(PID.TID 0000.0001) err/err_init  0.1482196E-01
(PID.TID 0000.0001) CONJ GRAD INIT RESID,  0.1541036E+12
(PID.TID 0000.0001) BEGINNING MAIN CG LOOP
(PID.TID 0000.0001) streamice linear solve number   10  101 iterations
(PID.TID 0000.0001) STREAMICE_FP_ERROR =  3.27544102519009E+01
(PID.TID 0000.0001) err/err_init  0.9059932E-02
(PID.TID 0000.0001) new cg tol:   0.5000000E-07
(PID.TID 0000.0001) CONJ GRAD INIT RESID,  0.9632929E+11
(PID.TID 0000.0001) BEGINNING MAIN CG LOOP
(PID.TID 0000.0001) streamice linear solve number   11  113 iterations
(PID.TID 0000.0001) STREAMICE_FP_ERROR =  2.05617001994112E+01
(PID.TID 0000.0001) err/err_init  0.5550835E-02
(PID.TID 0000.0001) CONJ GRAD INIT RESID,  0.6041033E+11
(PID.TID 0000.0001) BEGINNING MAIN CG LOOP
(PID.TID 0000.0001) streamice linear solve number   12  113 iterations
(PID.TID 0000.0001) STREAMICE_FP_ERROR =  1.28293010184123E+01
(PID.TID 0000.0001) err/err_init  0.3409377E-02
(PID.TID 0000.0001) CONJ GRAD INIT RESID,  0.3799137E+11
(PID.TID 0000.0001) BEGINNING MAIN CG LOOP
(PID.TID 0000.0001) streamice linear solve number   13  114 iterations
(PID.TID 0000.0001) STREAMICE_FP_ERROR =  7.97860327922490E+00
(PID.TID 0000.0001) err/err_init  0.2098976E-02
(PID.TID 0000.0001) CONJ GRAD INIT RESID,  0.2394879E+11
(PID.TID 0000.0001) BEGINNING MAIN CG LOOP
(PID.TID 0000.0001) streamice linear solve number   14  114 iterations
(PID.TID 0000.0001) STREAMICE_FP_ERROR =  4.95370408623512E+00
(PID.TID 0000.0001) err/err_init  0.1294890E-02
(PID.TID 0000.0001) CONJ GRAD INIT RESID,  0.1512580E+11
(PID.TID 0000.0001) BEGINNING MAIN CG LOOP
(PID.TID 0000.0001) streamice linear solve number   15  114 iterations
(PID.TID 0000.0001) STREAMICE_FP_ERROR =  3.07332025971550E+00
(PID.TID 0000.0001) err/err_init  0.8002276E-03
(PID.TID 0000.0001) CONJ GRAD INIT RESID,  0.9568045E+10
(PID.TID 0000.0001) BEGINNING MAIN CG LOOP
(PID.TID 0000.0001) streamice linear solve number   16  114 iterations
(PID.TID 0000.0001) STREAMICE_FP_ERROR =  1.90624748611481E+00
(PID.TID 0000.0001) err/err_init  0.4952420E-03
(PID.TID 0000.0001) CONJ GRAD INIT RESID,  0.6059797E+10
(PID.TID 0000.0001) BEGINNING MAIN CG LOOP
(PID.TID 0000.0001) streamice linear solve number   17  114 iterations
(PID.TID 0000.0001) STREAMICE_FP_ERROR =  1.18239327513879E+00
(PID.TID 0000.0001) err/err_init  0.3068499E-03
(PID.TID 0000.0001) CONJ GRAD INIT RESID,  0.3841563E+10
(PID.TID 0000.0001) BEGINNING MAIN CG LOOP
(PID.TID 0000.0001) streamice linear solve number   18  113 iterations
(PID.TID 0000.0001) STREAMICE_FP_ERROR =  7.33525493959860E-01
(PID.TID 0000.0001) err/err_init  0.1902993E-03
(PID.TID 0000.0001) CONJ GRAD INIT RESID,  0.2437132E+10
(PID.TID 0000.0001) BEGINNING MAIN CG LOOP
(PID.TID 0000.0001) streamice linear solve number   19  113 iterations
(PID.TID 0000.0001) STREAMICE_FP_ERROR =  4.55161828184373E-01
(PID.TID 0000.0001) err/err_init  0.1181042E-03
(PID.TID 0000.0001) CONJ GRAD INIT RESID,  0.1547017E+10
(PID.TID 0000.0001) BEGINNING MAIN CG LOOP
(PID.TID 0000.0001) streamice linear solve number   20  113 iterations
(PID.TID 0000.0001)  MDS_WRITE_FIELD: it,rec,kS,kL,kH=       0     1   1   1   1 file=u_bound_cont_A
(PID.TID 0000.0001)  MDS_WRITE_FIELD: it,rec,kS,kL,kH=       0     1   1   1   1 file=v_bound_cont_A
(PID.TID 0000.0001)  MDS_WRITE_FIELD: it,rec,kS,kL,kH=       0     1   1   1   1 file=u_bound_cont_B
(PID.TID 0000.0001)  MDS_WRITE_FIELD: it,rec,kS,kL,kH=       0     1   1   1   1 file=v_bound_cont_B
(PID.TID 0000.0001) STREAMICE_FP_ERROR =  2.82502817109162E-01
(PID.TID 0000.0001) err/err_init  0.7334005E-04
(PID.TID 0000.0001) new cg tol:   0.2500000E-08
(PID.TID 0000.0001) VELOCITY SOLVE NOT CONVERGED IN    20 iterations
 time_step_loc   0.20000000000000001     
(PID.TID 0000.0001) END STREAMICE_ADVECT_THICKNESS
(PID.TID 0000.0001) CALLING FILL DIAGNOSTICS
(PID.TID 0000.0001) // =======================================================
(PID.TID 0000.0001) // Begin MONITOR dynamic field statistics
(PID.TID 0000.0001) // =======================================================
(PID.TID 0000.0001) %MON time_tsnumber                =                    10
(PID.TID 0000.0001) %MON time_secondsf                =   6.3072000000000E+07
(PID.TID 0000.0001) %MON dynstat_eta_max              =   0.0000000000000E+00
(PID.TID 0000.0001) %MON dynstat_eta_min              =   0.0000000000000E+00
(PID.TID 0000.0001) %MON dynstat_eta_mean             =   0.0000000000000E+00
(PID.TID 0000.0001) %MON dynstat_eta_sd               =   0.0000000000000E+00
(PID.TID 0000.0001) %MON dynstat_eta_del2             =   0.0000000000000E+00
(PID.TID 0000.0001) %MON dynstat_uvel_max             =   0.0000000000000E+00
(PID.TID 0000.0001) %MON dynstat_uvel_min             =   0.0000000000000E+00
(PID.TID 0000.0001) %MON dynstat_uvel_mean            =   0.0000000000000E+00
(PID.TID 0000.0001) %MON dynstat_uvel_sd              =   0.0000000000000E+00
(PID.TID 0000.0001) %MON dynstat_uvel_del2            =   0.0000000000000E+00
(PID.TID 0000.0001) %MON dynstat_vvel_max             =   0.0000000000000E+00
(PID.TID 0000.0001) %MON dynstat_vvel_min             =   0.0000000000000E+00
(PID.TID 0000.0001) %MON dynstat_vvel_mean            =   0.0000000000000E+00
(PID.TID 0000.0001) %MON dynstat_vvel_sd              =   0.0000000000000E+00
(PID.TID 0000.0001) %MON dynstat_vvel_del2            =   0.0000000000000E+00
(PID.TID 0000.0001) %MON dynstat_wvel_max             =  -0.0000000000000E+00
(PID.TID 0000.0001) %MON dynstat_wvel_min             =  -0.0000000000000E+00
(PID.TID 0000.0001) %MON dynstat_wvel_mean            =   0.0000000000000E+00
(PID.TID 0000.0001) %MON dynstat_wvel_sd              =   0.0000000000000E+00
(PID.TID 0000.0001) %MON dynstat_wvel_del2            =   0.0000000000000E+00
(PID.TID 0000.0001) %MON dynstat_theta_max            =   2.0000000000000E+01
(PID.TID 0000.0001) %MON dynstat_theta_min            =   2.0000000000000E+01
(PID.TID 0000.0001) %MON dynstat_theta_mean           =   2.0000000000000E+01
(PID.TID 0000.0001) %MON dynstat_theta_sd             =   3.5527136788005E-14
(PID.TID 0000.0001) %MON dynstat_theta_del2           =   0.0000000000000E+00
(PID.TID 0000.0001) %MON dynstat_salt_max             =   1.0000000000000E+01
(PID.TID 0000.0001) %MON dynstat_salt_min             =   1.0000000000000E+01
(PID.TID 0000.0001) %MON dynstat_salt_mean            =   1.0000000000000E+01
(PID.TID 0000.0001) %MON dynstat_salt_sd              =   1.7763568394003E-14
(PID.TID 0000.0001) %MON dynstat_salt_del2            =   0.0000000000000E+00
(PID.TID 0000.0001) %MON advcfl_uvel_max              =   0.0000000000000E+00
(PID.TID 0000.0001) %MON advcfl_vvel_max              =   0.0000000000000E+00
(PID.TID 0000.0001) %MON advcfl_wvel_max              =   0.0000000000000E+00
(PID.TID 0000.0001) %MON advcfl_W_hf_max              =   0.0000000000000E+00
(PID.TID 0000.0001) %MON pe_b_mean                    =   0.0000000000000E+00
(PID.TID 0000.0001) %MON ke_max                       =   0.0000000000000E+00
(PID.TID 0000.0001) %MON ke_mean                      =   0.0000000000000E+00
(PID.TID 0000.0001) %MON ke_vol                       =   2.3451276693986E+12
(PID.TID 0000.0001) // =======================================================
(PID.TID 0000.0001) // End MONITOR dynamic field statistics
(PID.TID 0000.0001) // =======================================================
(PID.TID 0000.0001)  MDS_WRITE_FIELD: it,rec,kS,kL,kH=      10     1   1   1   1 file=U.0000000010
(PID.TID 0000.0001)  MDS_WRITE_FIELD: it,rec,kS,kL,kH=      10     1   1   1   1 file=V.0000000010
(PID.TID 0000.0001)  MDS_WRITE_FIELD: it,rec,kS,kL,kH=      10     1   1   1   1 file=T.0000000010
(PID.TID 0000.0001)  MDS_WRITE_FIELD: it,rec,kS,kL,kH=      10     1   1   1   1 file=S.0000000010
(PID.TID 0000.0001)  MDS_WRITE_FIELD: it,rec,kS,kL,kH=      10     1   1   1   1 file=Eta.0000000010
(PID.TID 0000.0001)  MDS_WRITE_FIELD: it,rec,kS,kL,kH=      10     1   1   1   1 file=W.0000000010
(PID.TID 0000.0001)  MDS_WRITE_FIELD: it,rec,kS,kL,kH=      10     1   1   1   1 file=PH.0000000010
(PID.TID 0000.0001)  MDS_WRITE_FIELD: it,rec,kS,kL,kH=      10     1   1   1   1 file=PHL.0000000010
 Computing Diagnostic #    102  SI_Uvel      Counter:      10   Parms: UZ      L1      
(PID.TID 0000.0001)  MDS_WRITE_FIELD: it,rec,kS,kL,kH=      10    -1   2   1   1 file=land_ice.0000000010
 Computing Diagnostic #    103  SI_Vvel      Counter:      10   Parms: VZ      L1      
(PID.TID 0000.0001)  MDS_WRITE_FIELD: it,rec,kS,kL,kH=      10    -2   2   1   1 file=land_ice.0000000010
 Computing Diagnostic #    104  SI_Thick     Counter:      10   Parms: SM      L1      
(PID.TID 0000.0001)  MDS_WRITE_FIELD: it,rec,kS,kL,kH=      10    -3   2   1   1 file=land_ice.0000000010
 Computing Diagnostic #    105  SI_area      Counter:      10   Parms: SM      L1      
(PID.TID 0000.0001)  MDS_WRITE_FIELD: it,rec,kS,kL,kH=      10    -4   2   1   1 file=land_ice.0000000010
 Computing Diagnostic #    106  SI_float     Counter:      10   Parms: SM      L1      
(PID.TID 0000.0001)  MDS_WRITE_FIELD: it,rec,kS,kL,kH=      10    -5   2   1   1 file=land_ice.0000000010
 Computing Diagnostic #    110  SI_selev     Counter:      10   Parms: SM      L1      
(PID.TID 0000.0001)  MDS_WRITE_FIELD: it,rec,kS,kL,kH=      10    -6   2   1   1 file=land_ice.0000000010
(PID.TID 0000.0001)  write diagnostics summary to file: diagnostics_status.0000000010.txt
(PID.TID 0000.0001)  MDS_WRITE_FIELD: it,rec,kS,kL,kH=      10    -1   1   1   1 file=pickup.ckptA
(PID.TID 0000.0001)  MDS_WRITE_FIELD: it,rec,kS,kL,kH=      10    -2   1   1   1 file=pickup.ckptA
(PID.TID 0000.0001)  MDS_WRITE_FIELD: it,rec,kS,kL,kH=      10    -3   1   1   1 file=pickup.ckptA
(PID.TID 0000.0001)  MDS_WRITE_FIELD: it,rec,kS,kL,kH=      10    -4   1   1   1 file=pickup.ckptA
(PID.TID 0000.0001)  MDS_WRITE_FIELD: it,rec,kS,kL,kH=      10    -5   1   1   1 file=pickup.ckptA
(PID.TID 0000.0001)  MDS_WRITE_FIELD: it,rec,kS,kL,kH=      10    -6   1   1   1 file=pickup.ckptA
(PID.TID 0000.0001)  MDS_WRITE_FIELD: it,rec,kS,kL,kH=      10    -7   1   1   1 file=pickup.ckptA
(PID.TID 0000.0001) %CHECKPOINT        10 ckptA
(PID.TID 0000.0001)   Seconds in section "ALL                    [THE_MODEL_MAIN]":
(PID.TID 0000.0001)           User time:   71.129999999999995
(PID.TID 0000.0001)         System time:  1.00000000000000002E-002
(PID.TID 0000.0001)     Wall clock time:   71.301898956298828
(PID.TID 0000.0001)          No. starts:           1
(PID.TID 0000.0001)           No. stops:           1
(PID.TID 0000.0001)   Seconds in section "INITIALISE_FIXED       [THE_MODEL_MAIN]":
(PID.TID 0000.0001)           User time:  2.99999999999999989E-002
(PID.TID 0000.0001)         System time:   0.0000000000000000
(PID.TID 0000.0001)     Wall clock time:  4.14781570434570313E-002
(PID.TID 0000.0001)          No. starts:           1
(PID.TID 0000.0001)           No. stops:           1
(PID.TID 0000.0001)   Seconds in section "THE_MAIN_LOOP          [THE_MODEL_MAIN]":
(PID.TID 0000.0001)           User time:   71.099999999999994
(PID.TID 0000.0001)         System time:  1.00000000000000002E-002
(PID.TID 0000.0001)     Wall clock time:   71.260379076004028
(PID.TID 0000.0001)          No. starts:           1
(PID.TID 0000.0001)           No. stops:           1
(PID.TID 0000.0001)   Seconds in section "INITIALISE_VARIA    [THE_MAIN_LOOP]":
(PID.TID 0000.0001)           User time:  1.00000000000000019E-002
(PID.TID 0000.0001)         System time:   0.0000000000000000
(PID.TID 0000.0001)     Wall clock time:  9.58895683288574219E-003
(PID.TID 0000.0001)          No. starts:           1
(PID.TID 0000.0001)           No. stops:           1
(PID.TID 0000.0001)   Seconds in section "MAIN LOOP           [THE_MAIN_LOOP]":
(PID.TID 0000.0001)           User time:   71.089999999999989
(PID.TID 0000.0001)         System time:  1.00000000000000002E-002
(PID.TID 0000.0001)     Wall clock time:   71.250761985778809
(PID.TID 0000.0001)          No. starts:           1
(PID.TID 0000.0001)           No. stops:           1
(PID.TID 0000.0001)   Seconds in section "MAIN_DO_LOOP        [THE_MAIN_LOOP]":
(PID.TID 0000.0001)           User time:   71.090000000000003
(PID.TID 0000.0001)         System time:  1.00000000000000002E-002
(PID.TID 0000.0001)     Wall clock time:   71.250654697418213
(PID.TID 0000.0001)          No. starts:          10
(PID.TID 0000.0001)           No. stops:          10
(PID.TID 0000.0001)   Seconds in section "FORWARD_STEP        [MAIN_DO_LOOP]":
(PID.TID 0000.0001)           User time:   71.090000000000003
(PID.TID 0000.0001)         System time:  1.00000000000000002E-002
(PID.TID 0000.0001)     Wall clock time:   71.250474929809570
(PID.TID 0000.0001)          No. starts:          10
(PID.TID 0000.0001)           No. stops:          10
(PID.TID 0000.0001)   Seconds in section "DO_STATEVARS_DIAGS  [FORWARD_STEP]":
(PID.TID 0000.0001)           User time:  9.99999999999090505E-003
(PID.TID 0000.0001)         System time:   0.0000000000000000
(PID.TID 0000.0001)     Wall clock time:  1.79982185363769531E-003
(PID.TID 0000.0001)          No. starts:          20
(PID.TID 0000.0001)           No. stops:          20
(PID.TID 0000.0001)   Seconds in section "LOAD_FIELDS_DRIVER  [FORWARD_STEP]":
(PID.TID 0000.0001)           User time:   0.0000000000000000
(PID.TID 0000.0001)         System time:   0.0000000000000000
(PID.TID 0000.0001)     Wall clock time:  2.80141830444335938E-004
(PID.TID 0000.0001)          No. starts:          10
(PID.TID 0000.0001)           No. stops:          10
(PID.TID 0000.0001)   Seconds in section "EXTERNAL_FLDS_LOAD [LOAD_FLDS_DRIVER]":
(PID.TID 0000.0001)           User time:   0.0000000000000000
(PID.TID 0000.0001)         System time:   0.0000000000000000
(PID.TID 0000.0001)     Wall clock time:  9.63211059570312500E-005
(PID.TID 0000.0001)          No. starts:          10
(PID.TID 0000.0001)           No. stops:          10
(PID.TID 0000.0001)   Seconds in section "DO_ATMOSPHERIC_PHYS [FORWARD_STEP]":
(PID.TID 0000.0001)           User time:   0.0000000000000000
(PID.TID 0000.0001)         System time:   0.0000000000000000
(PID.TID 0000.0001)     Wall clock time:  8.94069671630859375E-005
(PID.TID 0000.0001)          No. starts:          10
(PID.TID 0000.0001)           No. stops:          10
(PID.TID 0000.0001)   Seconds in section "DO_OCEANIC_PHYS     [FORWARD_STEP]":
(PID.TID 0000.0001)           User time:  9.99999999999090505E-003
(PID.TID 0000.0001)         System time:   0.0000000000000000
(PID.TID 0000.0001)     Wall clock time:  3.13258171081542969E-003
(PID.TID 0000.0001)          No. starts:          10
(PID.TID 0000.0001)           No. stops:          10
(PID.TID 0000.0001)   Seconds in section "STREAMICE_CG_SOLVE":
(PID.TID 0000.0001)           User time:   44.220000000000070
(PID.TID 0000.0001)         System time:   0.0000000000000000
(PID.TID 0000.0001)     Wall clock time:   44.143147706985474
(PID.TID 0000.0001)          No. starts:         200
(PID.TID 0000.0001)           No. stops:         200
(PID.TID 0000.0001)   Seconds in section "THERMODYNAMICS      [FORWARD_STEP]":
(PID.TID 0000.0001)           User time:   0.0000000000000000
(PID.TID 0000.0001)         System time:   0.0000000000000000
(PID.TID 0000.0001)     Wall clock time:  9.53674316406250000E-005
(PID.TID 0000.0001)          No. starts:          10
(PID.TID 0000.0001)           No. stops:          10
(PID.TID 0000.0001)   Seconds in section "TRC_CORRECTION_STEP [FORWARD_STEP]":
(PID.TID 0000.0001)           User time:   0.0000000000000000
(PID.TID 0000.0001)         System time:   0.0000000000000000
(PID.TID 0000.0001)     Wall clock time:  9.27448272705078125E-005
(PID.TID 0000.0001)          No. starts:          10
(PID.TID 0000.0001)           No. stops:          10
(PID.TID 0000.0001)   Seconds in section "BLOCKING_EXCHANGES  [FORWARD_STEP]":
(PID.TID 0000.0001)           User time:   0.0000000000000000
(PID.TID 0000.0001)         System time:   0.0000000000000000
(PID.TID 0000.0001)     Wall clock time:  1.41310691833496094E-003
(PID.TID 0000.0001)          No. starts:          10
(PID.TID 0000.0001)           No. stops:          10
(PID.TID 0000.0001)   Seconds in section "MONITOR             [FORWARD_STEP]":
(PID.TID 0000.0001)           User time:   0.0000000000000000
(PID.TID 0000.0001)         System time:   0.0000000000000000
(PID.TID 0000.0001)     Wall clock time:  2.00080871582031250E-003
(PID.TID 0000.0001)          No. starts:          10
(PID.TID 0000.0001)           No. stops:          10
(PID.TID 0000.0001)   Seconds in section "DO_THE_MODEL_IO     [FORWARD_STEP]":
(PID.TID 0000.0001)           User time:   0.0000000000000000
(PID.TID 0000.0001)         System time:   0.0000000000000000
(PID.TID 0000.0001)     Wall clock time:  3.23605537414550781E-003
(PID.TID 0000.0001)          No. starts:          10
(PID.TID 0000.0001)           No. stops:          10
(PID.TID 0000.0001)   Seconds in section "DO_WRITE_PICKUP     [FORWARD_STEP]":
(PID.TID 0000.0001)           User time:   0.0000000000000000
(PID.TID 0000.0001)         System time:   0.0000000000000000
(PID.TID 0000.0001)     Wall clock time:  1.06954574584960938E-003
(PID.TID 0000.0001)          No. starts:          10
(PID.TID 0000.0001)           No. stops:          10
(PID.TID 0000.0001) // ======================================================
(PID.TID 0000.0001) // Tile <-> Tile communication statistics
(PID.TID 0000.0001) // ======================================================
(PID.TID 0000.0001) // o Tile number: 000001
(PID.TID 0000.0001) //         No. X exchanges =              0
(PID.TID 0000.0001) //            Max. X spins =              0
(PID.TID 0000.0001) //            Min. X spins =     1000000000
(PID.TID 0000.0001) //          Total. X spins =              0
(PID.TID 0000.0001) //            Avg. X spins =       0.00E+00
(PID.TID 0000.0001) //         No. Y exchanges =              0
(PID.TID 0000.0001) //            Max. Y spins =              0
(PID.TID 0000.0001) //            Min. Y spins =     1000000000
(PID.TID 0000.0001) //          Total. Y spins =              0
(PID.TID 0000.0001) //            Avg. Y spins =       0.00E+00
(PID.TID 0000.0001) // o Tile number: 000002
(PID.TID 0000.0001) //         No. X exchanges =              0
(PID.TID 0000.0001) //            Max. X spins =              0
(PID.TID 0000.0001) //            Min. X spins =     1000000000
(PID.TID 0000.0001) //          Total. X spins =              0
(PID.TID 0000.0001) //            Avg. X spins =       0.00E+00
(PID.TID 0000.0001) //         No. Y exchanges =              0
(PID.TID 0000.0001) //            Max. Y spins =              0
(PID.TID 0000.0001) //            Min. Y spins =     1000000000
(PID.TID 0000.0001) //          Total. Y spins =              0
(PID.TID 0000.0001) //            Avg. Y spins =       0.00E+00
(PID.TID 0000.0001) // o Thread number: 000001
(PID.TID 0000.0001) //            No. barriers =         217656
(PID.TID 0000.0001) //      Max. barrier spins =              1
(PID.TID 0000.0001) //      Min. barrier spins =              1
(PID.TID 0000.0001) //     Total barrier spins =         217656
(PID.TID 0000.0001) //      Avg. barrier spins =       1.00E+00
PROGRAM MAIN: Execution ended Normally
