(PID.TID 0000.0001) 
(PID.TID 0000.0001) // ======================================================
(PID.TID 0000.0001) //                      MITgcm UV
(PID.TID 0000.0001) //                      =========
(PID.TID 0000.0001) // ======================================================
(PID.TID 0000.0001) // execution environment starting up...
(PID.TID 0000.0001) // Run starting Wed Apr  1 14:19:48 1998
(PID.TID 0000.0001) // on melville.lcs.mit.edu
(PID.TID 0000.0001) // account cnh
(PID.TID 0000.0001) // MITgcm UV Release: $Name:  $
(PID.TID 0000.0001) 
(PID.TID 0000.0001) // =======================================================
(PID.TID 0000.0001) // Execution Environment parameter file "eedata"
(PID.TID 0000.0001) // =======================================================
(PID.TID 0000.0001) ># Example "eedata" file
(PID.TID 0000.0001) ># Lines beginning "#" are comments
(PID.TID 0000.0001) ># nTx - No. threads per process in X
(PID.TID 0000.0001) ># nTy - No. threads per process in Y
(PID.TID 0000.0001) > &EEPARMS
(PID.TID 0000.0001) > nTx=1,nTy=1,
(PID.TID 0000.0001) > &
(PID.TID 0000.0001) ># Note: Some systems use & as the
(PID.TID 0000.0001) ># namelist terminator. Other systems
(PID.TID 0000.0001) ># use a / character (as shown here).
(PID.TID 0000.0001) 
(PID.TID 0000.0001) // =======================================================
(PID.TID 0000.0001) // Computational Grid Specification ( see files "SIZE.h" )
(PID.TID 0000.0001) //                                  ( and "eedata"       )
(PID.TID 0000.0001) // =======================================================
(PID.TID 0000.0001)      nPx =    1 ; /* No. processes in X */
(PID.TID 0000.0001)      nPy =    1 ; /* No. processes in Y */
(PID.TID 0000.0001)      nSx =    2 ; /* No. tiles in X per process */
(PID.TID 0000.0001)      nSy =    2 ; /* No. tiles in Y per process */
(PID.TID 0000.0001)      sNx =   30 ; /* Tile size in X */
(PID.TID 0000.0001)      sNy =   30 ; /* Tile size in Y */
(PID.TID 0000.0001)      OLx =    3 ; /* Tile overlap distance in X */
(PID.TID 0000.0001)      OLy =    3 ; /* Tile overlap distance in Y */
(PID.TID 0000.0001)      nTx =    1 ; /* No. threads in X per process */
(PID.TID 0000.0001)      nTy =    1 ; /* No. threads in Y per process */
(PID.TID 0000.0001)       Nr =    4 ; /* No. levels in the vertical   */
(PID.TID 0000.0001)       nX =   60 ; /* Total domain size in X ( = nPx*nSx*sNx ) */
(PID.TID 0000.0001)       nY =   60 ; /* Total domain size in Y ( = nPy*nSy*sNy ) */
(PID.TID 0000.0001)   nTiles =    4 ; /* Total no. tiles per process ( = nSx*nSy ) */
(PID.TID 0000.0001)   nProcs =    1 ; /* Total no. processes ( = nPx*nPy ) */
(PID.TID 0000.0001) nThreads =    1 ; /* Total no. threads per process ( = nTx*nTy ) */
(PID.TID 0000.0001) usingMPI =    F ; /* Flag used to control whether MPI is in use */
(PID.TID 0000.0001)                   /*  note: To execute a program with MPI calls */
(PID.TID 0000.0001)                   /*  it must be launched appropriately e.g     */
(PID.TID 0000.0001)                   /*  "mpirun -np 64 ......"                    */
(PID.TID 0000.0001) 
(PID.TID 0000.0001) // ======================================================
(PID.TID 0000.0001) // Mapping of tiles to threads
(PID.TID 0000.0001) // ======================================================
(PID.TID 0000.0001) // -o- Thread   1, tiles (   1:   2,   1:   2)
(PID.TID 0000.0001) 
(PID.TID 0000.0001) // ======================================================
(PID.TID 0000.0001) // Tile <-> Tile connectvity table
(PID.TID 0000.0001) // ======================================================
(PID.TID 0000.0001) // Tile number: 000001 (process no. = 000001)
(PID.TID 0000.0001) //        WEST: Tile = 000002, Process = 000001, Comm = put
(PID.TID 0000.0001) //                bi = 000002, bj = 000001
(PID.TID 0000.0001) //        EAST: Tile = 000002, Process = 000001, Comm = put
(PID.TID 0000.0001) //                bi = 000002, bj = 000001
(PID.TID 0000.0001) //       SOUTH: Tile = 000003, Process = 000001, Comm = put
(PID.TID 0000.0001) //                bi = 000001, bj = 000002
(PID.TID 0000.0001) //       NORTH: Tile = 000003, Process = 000001, Comm = put
(PID.TID 0000.0001) //                bi = 000001, bj = 000002
(PID.TID 0000.0001) // Tile number: 000002 (process no. = 000001)
(PID.TID 0000.0001) //        WEST: Tile = 000001, Process = 000001, Comm = put
(PID.TID 0000.0001) //                bi = 000001, bj = 000001
(PID.TID 0000.0001) //        EAST: Tile = 000001, Process = 000001, Comm = put
(PID.TID 0000.0001) //                bi = 000001, bj = 000001
(PID.TID 0000.0001) //       SOUTH: Tile = 000004, Process = 000001, Comm = put
(PID.TID 0000.0001) //                bi = 000002, bj = 000002
(PID.TID 0000.0001) //       NORTH: Tile = 000004, Process = 000001, Comm = put
(PID.TID 0000.0001) //                bi = 000002, bj = 000002
(PID.TID 0000.0001) // Tile number: 000003 (process no. = 000001)
(PID.TID 0000.0001) //        WEST: Tile = 000004, Process = 000001, Comm = put
(PID.TID 0000.0001) //                bi = 000002, bj = 000002
(PID.TID 0000.0001) //        EAST: Tile = 000004, Process = 000001, Comm = put
(PID.TID 0000.0001) //                bi = 000002, bj = 000002
(PID.TID 0000.0001) //       SOUTH: Tile = 000001, Process = 000001, Comm = put
(PID.TID 0000.0001) //                bi = 000001, bj = 000001
(PID.TID 0000.0001) //       NORTH: Tile = 000001, Process = 000001, Comm = put
(PID.TID 0000.0001) //                bi = 000001, bj = 000001
(PID.TID 0000.0001) // Tile number: 000004 (process no. = 000001)
(PID.TID 0000.0001) //        WEST: Tile = 000003, Process = 000001, Comm = put
(PID.TID 0000.0001) //                bi = 000001, bj = 000002
(PID.TID 0000.0001) //        EAST: Tile = 000003, Process = 000001, Comm = put
(PID.TID 0000.0001) //                bi = 000001, bj = 000002
(PID.TID 0000.0001) //       SOUTH: Tile = 000002, Process = 000001, Comm = put
(PID.TID 0000.0001) //                bi = 000002, bj = 000001
(PID.TID 0000.0001) //       NORTH: Tile = 000002, Process = 000001, Comm = put
(PID.TID 0000.0001) //                bi = 000002, bj = 000001
(PID.TID 0000.0001) 
(PID.TID 0000.0001) // =======================================================
(PID.TID 0000.0001) // Model parameter file "data"
(PID.TID 0000.0001) // =======================================================
(PID.TID 0000.0001) ># Model parameters
(PID.TID 0000.0001) ># Continuous equation parameters
(PID.TID 0000.0001) > &PARM01
(PID.TID 0000.0001) > tRef=20.,10.,8.,6.,
(PID.TID 0000.0001) > sRef=10.,10.,10.,10.,
(PID.TID 0000.0001) > viscAz=1.E-2,
(PID.TID 0000.0001) > viscAh=4.E2,
(PID.TID 0000.0001) > no_slip_sides=.FALSE.,
(PID.TID 0000.0001) > no_slip_bottom=.TRUE.,
(PID.TID 0000.0001) > diffKhT=4.E2,
(PID.TID 0000.0001) > diffKzT=1.E-2,
(PID.TID 0000.0001) > beta=1.E-11,
(PID.TID 0000.0001) > tAlpha=2.E-4,
(PID.TID 0000.0001) > sBeta =0.,
(PID.TID 0000.0001) > gravity=9.81,
(PID.TID 0000.0001) > rigidLid=.FALSE.,
(PID.TID 0000.0001) > implicitFreeSurface=.TRUE.,
(PID.TID 0000.0001) > eosType='LINEAR',
(PID.TID 0000.0001) > readBinaryPrec=64,
(PID.TID 0000.0001) > &
(PID.TID 0000.0001) ># Elliptic solver parameters
(PID.TID 0000.0001) > &PARM02
(PID.TID 0000.0001) > cg2dMaxIters=1000,
(PID.TID 0000.0001) > cg2dTargetResidual=1.E-13,
(PID.TID 0000.0001) > &
(PID.TID 0000.0001) ># Time stepping parameters
(PID.TID 0000.0001) > &PARM03
(PID.TID 0000.0001) > startTime=0.,
(PID.TID 0000.0001) > endTime=12000.,
(PID.TID 0000.0001) > deltaTmom=1200.0,
(PID.TID 0000.0001) > deltaTtracer=1200.0,
(PID.TID 0000.0001) > abEps=0.1,
(PID.TID 0000.0001) > pChkptFreq=17000.0,
(PID.TID 0000.0001) > chkptFreq=0.0,
(PID.TID 0000.0001) > dumpFreq=2592000.0,
(PID.TID 0000.0001) > &
(PID.TID 0000.0001) ># Gridding parameters
(PID.TID 0000.0001) > &PARM04
(PID.TID 0000.0001) > usingCartesianGrid=.FALSE.,
(PID.TID 0000.0001) > usingSphericalPolarGrid=.TRUE.,
(PID.TID 0000.0001) > phiMin=-30.,
(PID.TID 0000.0001) > delX=60*1.,
(PID.TID 0000.0001) > delY=60*1.,
(PID.TID 0000.0001) > delZ=500.,500.,500.,500.,
(PID.TID 0000.0001) > &
(PID.TID 0000.0001) > &PARM05
(PID.TID 0000.0001) > bathyFile='topog.box',
(PID.TID 0000.0001) > hydrogThetaFile=,
(PID.TID 0000.0001) > hydrogSaltFile=,
(PID.TID 0000.0001) > zonalWindFile='windx.sin_y',
(PID.TID 0000.0001) > meridWindFile=,
(PID.TID 0000.0001) > &
(PID.TID 0000.0001) 
(PID.TID 0000.0001)  MDSREADFIELD: opening global file: topog.box
(PID.TID 0000.0001) // =======================================================
(PID.TID 0000.0001) // Field Model depths (ini_depths) at iteration          1
(PID.TID 0000.0001) // CMIN =         -2.000000000000000E+03
(PID.TID 0000.0001) // CMAX =         -2.000000000000000E+03
(PID.TID 0000.0001) // CINT =          0.000000000000000E+00
(PID.TID 0000.0001) // SYMBOLS (CMIN->CMAX): -abcdefghijklmnopqrstuvwxyz+
(PID.TID 0000.0001) //                  0.0: .
(PID.TID 0000.0001) // RANGE I (Lo:Hi:Step):(  -2:  63:   1)
(PID.TID 0000.0001) // RANGE J (Lo:Hi:Step):(  63:  -2:  -1)
(PID.TID 0000.0001) // RANGE K (Lo:Hi:Step):(   1:   1:   1)
(PID.TID 0000.0001) // =======================================================
(PID.TID 0000.0001) K =   1
(PID.TID 0000.0001) //                I=7       I=17      I=27      I=31      I=41      I=51      I=61
(PID.TID 0000.0001) // |--J--|**0123456|890123456|890123456|890123890|234567890|234567890|234567890|23
(PID.TID 0000.0001) //     63 --.-----------------------------------------------------------------.---
(PID.TID 0000.0001) //     62 --.-----------------------------------------------------------------.---
(PID.TID 0000.0001) //     61 --.-----------------------------------------------------------------.---
(PID.TID 0000.0001) //     60 ........................................................................
(PID.TID 0000.0001) //     59 --.-----------------------------------------------------------------.---
(PID.TID 0000.0001) //     58 --.-----------------------------------------------------------------.---
(PID.TID 0000.0001) //     57 --.-----------------------------------------------------------------.---
(PID.TID 0000.0001) //     56 --.-----------------------------------------------------------------.---
(PID.TID 0000.0001) //     55 --.-----------------------------------------------------------------.---
(PID.TID 0000.0001) //     54 --.-----------------------------------------------------------------.---
(PID.TID 0000.0001) //     53 --.-----------------------------------------------------------------.---
(PID.TID 0000.0001) //     52 --.-----------------------------------------------------------------.---
(PID.TID 0000.0001) //     51 --.-----------------------------------------------------------------.---
(PID.TID 0000.0001) //     50 --.-----------------------------------------------------------------.---
(PID.TID 0000.0001) //     49 --.-----------------------------------------------------------------.---
(PID.TID 0000.0001) //     48 --.-----------------------------------------------------------------.---
(PID.TID 0000.0001) //     47 --.-----------------------------------------------------------------.---
(PID.TID 0000.0001) //     46 --.-----------------------------------------------------------------.---
(PID.TID 0000.0001) //     45 --.-----------------------------------------------------------------.---
(PID.TID 0000.0001) //     44 --.-----------------------------------------------------------------.---
(PID.TID 0000.0001) //     43 --.-----------------------------------------------------------------.---
(PID.TID 0000.0001) //     42 --.-----------------------------------------------------------------.---
(PID.TID 0000.0001) //     41 --.-----------------------------------------------------------------.---
(PID.TID 0000.0001) //     40 --.-----------------------------------------------------------------.---
(PID.TID 0000.0001) //     39 --.-----------------------------------------------------------------.---
(PID.TID 0000.0001) //     38 --.-----------------------------------------------------------------.---
(PID.TID 0000.0001) //     37 --.-----------------------------------------------------------------.---
(PID.TID 0000.0001) //     36 --.-----------------------------------------------------------------.---
(PID.TID 0000.0001) //     35 --.-----------------------------------------------------------------.---
(PID.TID 0000.0001) //     34 --.-----------------------------------------------------------------.---
(PID.TID 0000.0001) //     33 --.-----------------------------------------------------------------.---
(PID.TID 0000.0001) //     32 --.-----------------------------------------------------------------.---
(PID.TID 0000.0001) //     31 --.-----------------------------------------------------------------.---
(PID.TID 0000.0001) //     30 --.-----------------------------------------------------------------.---
(PID.TID 0000.0001) //     29 --.-----------------------------------------------------------------.---
(PID.TID 0000.0001) //     28 --.-----------------------------------------------------------------.---
(PID.TID 0000.0001) //     33 --.-----------------------------------------------------------------.---
(PID.TID 0000.0001) //     32 --.-----------------------------------------------------------------.---
(PID.TID 0000.0001) //     31 --.-----------------------------------------------------------------.---
(PID.TID 0000.0001) //     30 --.-----------------------------------------------------------------.---
(PID.TID 0000.0001) //     29 --.-----------------------------------------------------------------.---
(PID.TID 0000.0001) //     28 --.-----------------------------------------------------------------.---
(PID.TID 0000.0001) //     27 --.-----------------------------------------------------------------.---
(PID.TID 0000.0001) //     26 --.-----------------------------------------------------------------.---
(PID.TID 0000.0001) //     25 --.-----------------------------------------------------------------.---
(PID.TID 0000.0001) //     24 --.-----------------------------------------------------------------.---
(PID.TID 0000.0001) //     23 --.-----------------------------------------------------------------.---
(PID.TID 0000.0001) //     22 --.-----------------------------------------------------------------.---
(PID.TID 0000.0001) //     21 --.-----------------------------------------------------------------.---
(PID.TID 0000.0001) //     20 --.-----------------------------------------------------------------.---
(PID.TID 0000.0001) //     19 --.-----------------------------------------------------------------.---
(PID.TID 0000.0001) //     18 --.-----------------------------------------------------------------.---
(PID.TID 0000.0001) //     17 --.-----------------------------------------------------------------.---
(PID.TID 0000.0001) //     16 --.-----------------------------------------------------------------.---
(PID.TID 0000.0001) //     15 --.-----------------------------------------------------------------.---
(PID.TID 0000.0001) //     14 --.-----------------------------------------------------------------.---
(PID.TID 0000.0001) //     13 --.-----------------------------------------------------------------.---
(PID.TID 0000.0001) //     12 --.-----------------------------------------------------------------.---
(PID.TID 0000.0001) //     11 --.-----------------------------------------------------------------.---
(PID.TID 0000.0001) //     10 --.-----------------------------------------------------------------.---
(PID.TID 0000.0001) //      9 --.-----------------------------------------------------------------.---
(PID.TID 0000.0001) //      8 --.-----------------------------------------------------------------.---
(PID.TID 0000.0001) //      7 --.-----------------------------------------------------------------.---
(PID.TID 0000.0001) //      6 --.-----------------------------------------------------------------.---
(PID.TID 0000.0001) //      5 --.-----------------------------------------------------------------.---
(PID.TID 0000.0001) //      4 --.-----------------------------------------------------------------.---
(PID.TID 0000.0001) //      3 --.-----------------------------------------------------------------.---
(PID.TID 0000.0001) //      2 --.-----------------------------------------------------------------.---
(PID.TID 0000.0001) //      1 --.-----------------------------------------------------------------.---
(PID.TID 0000.0001) //      0 ........................................................................
(PID.TID 0000.0001) //     -1 --.-----------------------------------------------------------------.---
(PID.TID 0000.0001) //     -2 --.-----------------------------------------------------------------.---
(PID.TID 0000.0001) // =======================================================
(PID.TID 0000.0001) // END OF FIELD                                          =
(PID.TID 0000.0001) // =======================================================
(PID.TID 0000.0001) 
(PID.TID 0000.0001) // =======================================================
(PID.TID 0000.0001) // Field Model Depths K Index at iteration          1
(PID.TID 0000.0001) // CMIN =          4.000000000000000E+00
(PID.TID 0000.0001) // CMAX =          4.000000000000000E+00
(PID.TID 0000.0001) // CINT =          0.000000000000000E+00
(PID.TID 0000.0001) // SYMBOLS (CMIN->CMAX): -abcdefghijklmnopqrstuvwxyz+
(PID.TID 0000.0001) //                  0.0: .
(PID.TID 0000.0001) // RANGE I (Lo:Hi:Step):(  -2:  63:   1)
(PID.TID 0000.0001) // RANGE J (Lo:Hi:Step):(  63:  -2:  -1)
(PID.TID 0000.0001) // RANGE K (Lo:Hi:Step):(   1:   1:   1)
(PID.TID 0000.0001) // =======================================================
(PID.TID 0000.0001) K =   1
(PID.TID 0000.0001) //                I=7       I=17      I=27      I=31      I=41      I=51      I=61
(PID.TID 0000.0001) // |--J--|**0123456|890123456|890123456|890123890|234567890|234567890|234567890|23
(PID.TID 0000.0001) //     63 --.-----------------------------------------------------------------.---
(PID.TID 0000.0001) //     62 --.-----------------------------------------------------------------.---
(PID.TID 0000.0001) //     61 --.-----------------------------------------------------------------.---
(PID.TID 0000.0001) //     60 ........................................................................
(PID.TID 0000.0001) //     59 --.-----------------------------------------------------------------.---
(PID.TID 0000.0001) //     58 --.-----------------------------------------------------------------.---
(PID.TID 0000.0001) //     57 --.-----------------------------------------------------------------.---
(PID.TID 0000.0001) //     56 --.-----------------------------------------------------------------.---
(PID.TID 0000.0001) //     55 --.-----------------------------------------------------------------.---
(PID.TID 0000.0001) //     54 --.-----------------------------------------------------------------.---
(PID.TID 0000.0001) //     53 --.-----------------------------------------------------------------.---
(PID.TID 0000.0001) //     52 --.-----------------------------------------------------------------.---
(PID.TID 0000.0001) //     51 --.-----------------------------------------------------------------.---
(PID.TID 0000.0001) //     50 --.-----------------------------------------------------------------.---
(PID.TID 0000.0001) //     49 --.-----------------------------------------------------------------.---
(PID.TID 0000.0001) //     48 --.-----------------------------------------------------------------.---
(PID.TID 0000.0001) //     47 --.-----------------------------------------------------------------.---
(PID.TID 0000.0001) //     46 --.-----------------------------------------------------------------.---
(PID.TID 0000.0001) //     45 --.-----------------------------------------------------------------.---
(PID.TID 0000.0001) //     44 --.-----------------------------------------------------------------.---
(PID.TID 0000.0001) //     43 --.-----------------------------------------------------------------.---
(PID.TID 0000.0001) //     42 --.-----------------------------------------------------------------.---
(PID.TID 0000.0001) //     41 --.-----------------------------------------------------------------.---
(PID.TID 0000.0001) //     40 --.-----------------------------------------------------------------.---
(PID.TID 0000.0001) //     39 --.-----------------------------------------------------------------.---
(PID.TID 0000.0001) //     38 --.-----------------------------------------------------------------.---
(PID.TID 0000.0001) //     37 --.-----------------------------------------------------------------.---
(PID.TID 0000.0001) //     36 --.-----------------------------------------------------------------.---
(PID.TID 0000.0001) //     35 --.-----------------------------------------------------------------.---
(PID.TID 0000.0001) //     34 --.-----------------------------------------------------------------.---
(PID.TID 0000.0001) //     33 --.-----------------------------------------------------------------.---
(PID.TID 0000.0001) //     32 --.-----------------------------------------------------------------.---
(PID.TID 0000.0001) //     31 --.-----------------------------------------------------------------.---
(PID.TID 0000.0001) //     30 --.-----------------------------------------------------------------.---
(PID.TID 0000.0001) //     29 --.-----------------------------------------------------------------.---
(PID.TID 0000.0001) //     28 --.-----------------------------------------------------------------.---
(PID.TID 0000.0001) //     33 --.-----------------------------------------------------------------.---
(PID.TID 0000.0001) //     32 --.-----------------------------------------------------------------.---
(PID.TID 0000.0001) //     31 --.-----------------------------------------------------------------.---
(PID.TID 0000.0001) //     30 --.-----------------------------------------------------------------.---
(PID.TID 0000.0001) //     29 --.-----------------------------------------------------------------.---
(PID.TID 0000.0001) //     28 --.-----------------------------------------------------------------.---
(PID.TID 0000.0001) //     27 --.-----------------------------------------------------------------.---
(PID.TID 0000.0001) //     26 --.-----------------------------------------------------------------.---
(PID.TID 0000.0001) //     25 --.-----------------------------------------------------------------.---
(PID.TID 0000.0001) //     24 --.-----------------------------------------------------------------.---
(PID.TID 0000.0001) //     23 --.-----------------------------------------------------------------.---
(PID.TID 0000.0001) //     22 --.-----------------------------------------------------------------.---
(PID.TID 0000.0001) //     21 --.-----------------------------------------------------------------.---
(PID.TID 0000.0001) //     20 --.-----------------------------------------------------------------.---
(PID.TID 0000.0001) //     19 --.-----------------------------------------------------------------.---
(PID.TID 0000.0001) //     18 --.-----------------------------------------------------------------.---
(PID.TID 0000.0001) //     17 --.-----------------------------------------------------------------.---
(PID.TID 0000.0001) //     16 --.-----------------------------------------------------------------.---
(PID.TID 0000.0001) //     15 --.-----------------------------------------------------------------.---
(PID.TID 0000.0001) //     14 --.-----------------------------------------------------------------.---
(PID.TID 0000.0001) //     13 --.-----------------------------------------------------------------.---
(PID.TID 0000.0001) //     12 --.-----------------------------------------------------------------.---
(PID.TID 0000.0001) //     11 --.-----------------------------------------------------------------.---
(PID.TID 0000.0001) //     10 --.-----------------------------------------------------------------.---
(PID.TID 0000.0001) //      9 --.-----------------------------------------------------------------.---
(PID.TID 0000.0001) //      8 --.-----------------------------------------------------------------.---
(PID.TID 0000.0001) //      7 --.-----------------------------------------------------------------.---
(PID.TID 0000.0001) //      6 --.-----------------------------------------------------------------.---
(PID.TID 0000.0001) //      5 --.-----------------------------------------------------------------.---
(PID.TID 0000.0001) //      4 --.-----------------------------------------------------------------.---
(PID.TID 0000.0001) //      3 --.-----------------------------------------------------------------.---
(PID.TID 0000.0001) //      2 --.-----------------------------------------------------------------.---
(PID.TID 0000.0001) //      1 --.-----------------------------------------------------------------.---
(PID.TID 0000.0001) //      0 ........................................................................
(PID.TID 0000.0001) //     -1 --.-----------------------------------------------------------------.---
(PID.TID 0000.0001) //     -2 --.-----------------------------------------------------------------.---
(PID.TID 0000.0001) // =======================================================
(PID.TID 0000.0001) // END OF FIELD                                          =
(PID.TID 0000.0001) // =======================================================
(PID.TID 0000.0001) 
(PID.TID 0000.0001) // =======================================================
(PID.TID 0000.0001) // Field Model depths (ini_masks_etc) at iteration          1
(PID.TID 0000.0001) // CMIN =         -2.000000000000000E+03
(PID.TID 0000.0001) // CMAX =         -2.000000000000000E+03
(PID.TID 0000.0001) // CINT =          0.000000000000000E+00
(PID.TID 0000.0001) // SYMBOLS (CMIN->CMAX): -abcdefghijklmnopqrstuvwxyz+
(PID.TID 0000.0001) //                  0.0: .
(PID.TID 0000.0001) // RANGE I (Lo:Hi:Step):(  -2:  63:   1)
(PID.TID 0000.0001) // RANGE J (Lo:Hi:Step):(  63:  -2:  -1)
(PID.TID 0000.0001) // RANGE K (Lo:Hi:Step):(   1:   1:   1)
(PID.TID 0000.0001) // =======================================================
(PID.TID 0000.0001) K =   1
(PID.TID 0000.0001) //                I=7       I=17      I=27      I=31      I=41      I=51      I=61
(PID.TID 0000.0001) // |--J--|**0123456|890123456|890123456|890123890|234567890|234567890|234567890|23
(PID.TID 0000.0001) //     63 --.-----------------------------------------------------------------.---
(PID.TID 0000.0001) //     62 --.-----------------------------------------------------------------.---
(PID.TID 0000.0001) //     61 --.-----------------------------------------------------------------.---
(PID.TID 0000.0001) //     60 ........................................................................
(PID.TID 0000.0001) //     59 --.-----------------------------------------------------------------.---
(PID.TID 0000.0001) //     58 --.-----------------------------------------------------------------.---
(PID.TID 0000.0001) //     57 --.-----------------------------------------------------------------.---
(PID.TID 0000.0001) //     56 --.-----------------------------------------------------------------.---
(PID.TID 0000.0001) //     55 --.-----------------------------------------------------------------.---
(PID.TID 0000.0001) //     54 --.-----------------------------------------------------------------.---
(PID.TID 0000.0001) //     53 --.-----------------------------------------------------------------.---
(PID.TID 0000.0001) //     52 --.-----------------------------------------------------------------.---
(PID.TID 0000.0001) //     51 --.-----------------------------------------------------------------.---
(PID.TID 0000.0001) //     50 --.-----------------------------------------------------------------.---
(PID.TID 0000.0001) //     49 --.-----------------------------------------------------------------.---
(PID.TID 0000.0001) //     48 --.-----------------------------------------------------------------.---
(PID.TID 0000.0001) //     47 --.-----------------------------------------------------------------.---
(PID.TID 0000.0001) //     46 --.-----------------------------------------------------------------.---
(PID.TID 0000.0001) //     45 --.-----------------------------------------------------------------.---
(PID.TID 0000.0001) //     44 --.-----------------------------------------------------------------.---
(PID.TID 0000.0001) //     43 --.-----------------------------------------------------------------.---
(PID.TID 0000.0001) //     42 --.-----------------------------------------------------------------.---
(PID.TID 0000.0001) //     41 --.-----------------------------------------------------------------.---
(PID.TID 0000.0001) //     40 --.-----------------------------------------------------------------.---
(PID.TID 0000.0001) //     39 --.-----------------------------------------------------------------.---
(PID.TID 0000.0001) //     38 --.-----------------------------------------------------------------.---
(PID.TID 0000.0001) //     37 --.-----------------------------------------------------------------.---
(PID.TID 0000.0001) //     36 --.-----------------------------------------------------------------.---
(PID.TID 0000.0001) //     35 --.-----------------------------------------------------------------.---
(PID.TID 0000.0001) //     34 --.-----------------------------------------------------------------.---
(PID.TID 0000.0001) //     33 --.-----------------------------------------------------------------.---
(PID.TID 0000.0001) //     32 --.-----------------------------------------------------------------.---
(PID.TID 0000.0001) //     31 --.-----------------------------------------------------------------.---
(PID.TID 0000.0001) //     30 --.-----------------------------------------------------------------.---
(PID.TID 0000.0001) //     29 --.-----------------------------------------------------------------.---
(PID.TID 0000.0001) //     28 --.-----------------------------------------------------------------.---
(PID.TID 0000.0001) //     33 --.-----------------------------------------------------------------.---
(PID.TID 0000.0001) //     32 --.-----------------------------------------------------------------.---
(PID.TID 0000.0001) //     31 --.-----------------------------------------------------------------.---
(PID.TID 0000.0001) //     30 --.-----------------------------------------------------------------.---
(PID.TID 0000.0001) //     29 --.-----------------------------------------------------------------.---
(PID.TID 0000.0001) //     28 --.-----------------------------------------------------------------.---
(PID.TID 0000.0001) //     27 --.-----------------------------------------------------------------.---
(PID.TID 0000.0001) //     26 --.-----------------------------------------------------------------.---
(PID.TID 0000.0001) //     25 --.-----------------------------------------------------------------.---
(PID.TID 0000.0001) //     24 --.-----------------------------------------------------------------.---
(PID.TID 0000.0001) //     23 --.-----------------------------------------------------------------.---
(PID.TID 0000.0001) //     22 --.-----------------------------------------------------------------.---
(PID.TID 0000.0001) //     21 --.-----------------------------------------------------------------.---
(PID.TID 0000.0001) //     20 --.-----------------------------------------------------------------.---
(PID.TID 0000.0001) //     19 --.-----------------------------------------------------------------.---
(PID.TID 0000.0001) //     18 --.-----------------------------------------------------------------.---
(PID.TID 0000.0001) //     17 --.-----------------------------------------------------------------.---
(PID.TID 0000.0001) //     16 --.-----------------------------------------------------------------.---
(PID.TID 0000.0001) //     15 --.-----------------------------------------------------------------.---
(PID.TID 0000.0001) //     14 --.-----------------------------------------------------------------.---
(PID.TID 0000.0001) //     13 --.-----------------------------------------------------------------.---
(PID.TID 0000.0001) //     12 --.-----------------------------------------------------------------.---
(PID.TID 0000.0001) //     11 --.-----------------------------------------------------------------.---
(PID.TID 0000.0001) //     10 --.-----------------------------------------------------------------.---
(PID.TID 0000.0001) //      9 --.-----------------------------------------------------------------.---
(PID.TID 0000.0001) //      8 --.-----------------------------------------------------------------.---
(PID.TID 0000.0001) //      7 --.-----------------------------------------------------------------.---
(PID.TID 0000.0001) //      6 --.-----------------------------------------------------------------.---
(PID.TID 0000.0001) //      5 --.-----------------------------------------------------------------.---
(PID.TID 0000.0001) //      4 --.-----------------------------------------------------------------.---
(PID.TID 0000.0001) //      3 --.-----------------------------------------------------------------.---
(PID.TID 0000.0001) //      2 --.-----------------------------------------------------------------.---
(PID.TID 0000.0001) //      1 --.-----------------------------------------------------------------.---
(PID.TID 0000.0001) //      0 ........................................................................
(PID.TID 0000.0001) //     -1 --.-----------------------------------------------------------------.---
(PID.TID 0000.0001) //     -2 --.-----------------------------------------------------------------.---
(PID.TID 0000.0001) // =======================================================
(PID.TID 0000.0001) // END OF FIELD                                          =
(PID.TID 0000.0001) // =======================================================
(PID.TID 0000.0001) 
(PID.TID 0000.0001) // =======================================================
(PID.TID 0000.0001) // Field hFacC at iteration          1
(PID.TID 0000.0001) // CMIN =          1.000000000000000E+00
(PID.TID 0000.0001) // CMAX =          1.000000000000000E+00
(PID.TID 0000.0001) // CINT =          0.000000000000000E+00
(PID.TID 0000.0001) // SYMBOLS (CMIN->CMAX): -abcdefghijklmnopqrstuvwxyz+
(PID.TID 0000.0001) //                  0.0: .
(PID.TID 0000.0001) // RANGE I (Lo:Hi:Step):(  -2:  63:   1)
(PID.TID 0000.0001) // RANGE J (Lo:Hi:Step):(  63:  -2:  -1)
(PID.TID 0000.0001) // RANGE K (Lo:Hi:Step):(   1:   1:   1)
(PID.TID 0000.0001) // =======================================================
(PID.TID 0000.0001) K =   1
(PID.TID 0000.0001) //                I=7       I=17      I=27      I=31      I=41      I=51      I=61
(PID.TID 0000.0001) // |--J--|**0123456|890123456|890123456|890123890|234567890|234567890|234567890|23
(PID.TID 0000.0001) //     63 --.-----------------------------------------------------------------.---
(PID.TID 0000.0001) //     62 --.-----------------------------------------------------------------.---
(PID.TID 0000.0001) //     61 --.-----------------------------------------------------------------.---
(PID.TID 0000.0001) //     60 ........................................................................
(PID.TID 0000.0001) //     59 --.-----------------------------------------------------------------.---
(PID.TID 0000.0001) //     58 --.-----------------------------------------------------------------.---
(PID.TID 0000.0001) //     57 --.-----------------------------------------------------------------.---
(PID.TID 0000.0001) //     56 --.-----------------------------------------------------------------.---
(PID.TID 0000.0001) //     55 --.-----------------------------------------------------------------.---
(PID.TID 0000.0001) //     54 --.-----------------------------------------------------------------.---
(PID.TID 0000.0001) //     53 --.-----------------------------------------------------------------.---
(PID.TID 0000.0001) //     52 --.-----------------------------------------------------------------.---
(PID.TID 0000.0001) //     51 --.-----------------------------------------------------------------.---
(PID.TID 0000.0001) //     50 --.-----------------------------------------------------------------.---
(PID.TID 0000.0001) //     49 --.-----------------------------------------------------------------.---
(PID.TID 0000.0001) //     48 --.-----------------------------------------------------------------.---
(PID.TID 0000.0001) //     47 --.-----------------------------------------------------------------.---
(PID.TID 0000.0001) //     46 --.-----------------------------------------------------------------.---
(PID.TID 0000.0001) //     45 --.-----------------------------------------------------------------.---
(PID.TID 0000.0001) //     44 --.-----------------------------------------------------------------.---
(PID.TID 0000.0001) //     43 --.-----------------------------------------------------------------.---
(PID.TID 0000.0001) //     42 --.-----------------------------------------------------------------.---
(PID.TID 0000.0001) //     41 --.-----------------------------------------------------------------.---
(PID.TID 0000.0001) //     40 --.-----------------------------------------------------------------.---
(PID.TID 0000.0001) //     39 --.-----------------------------------------------------------------.---
(PID.TID 0000.0001) //     38 --.-----------------------------------------------------------------.---
(PID.TID 0000.0001) //     37 --.-----------------------------------------------------------------.---
(PID.TID 0000.0001) //     36 --.-----------------------------------------------------------------.---
(PID.TID 0000.0001) //     35 --.-----------------------------------------------------------------.---
(PID.TID 0000.0001) //     34 --.-----------------------------------------------------------------.---
(PID.TID 0000.0001) //     33 --.-----------------------------------------------------------------.---
(PID.TID 0000.0001) //     32 --.-----------------------------------------------------------------.---
(PID.TID 0000.0001) //     31 --.-----------------------------------------------------------------.---
(PID.TID 0000.0001) //     30 --.-----------------------------------------------------------------.---
(PID.TID 0000.0001) //     29 --.-----------------------------------------------------------------.---
(PID.TID 0000.0001) //     28 --.-----------------------------------------------------------------.---
(PID.TID 0000.0001) //     33 --.-----------------------------------------------------------------.---
(PID.TID 0000.0001) //     32 --.-----------------------------------------------------------------.---
(PID.TID 0000.0001) //     31 --.-----------------------------------------------------------------.---
(PID.TID 0000.0001) //     30 --.-----------------------------------------------------------------.---
(PID.TID 0000.0001) //     29 --.-----------------------------------------------------------------.---
(PID.TID 0000.0001) //     28 --.-----------------------------------------------------------------.---
(PID.TID 0000.0001) //     27 --.-----------------------------------------------------------------.---
(PID.TID 0000.0001) //     26 --.-----------------------------------------------------------------.---
(PID.TID 0000.0001) //     25 --.-----------------------------------------------------------------.---
(PID.TID 0000.0001) //     24 --.-----------------------------------------------------------------.---
(PID.TID 0000.0001) //     23 --.-----------------------------------------------------------------.---
(PID.TID 0000.0001) //     22 --.-----------------------------------------------------------------.---
(PID.TID 0000.0001) //     21 --.-----------------------------------------------------------------.---
(PID.TID 0000.0001) //     20 --.-----------------------------------------------------------------.---
(PID.TID 0000.0001) //     19 --.-----------------------------------------------------------------.---
(PID.TID 0000.0001) //     18 --.-----------------------------------------------------------------.---
(PID.TID 0000.0001) //     17 --.-----------------------------------------------------------------.---
(PID.TID 0000.0001) //     16 --.-----------------------------------------------------------------.---
(PID.TID 0000.0001) //     15 --.-----------------------------------------------------------------.---
(PID.TID 0000.0001) //     14 --.-----------------------------------------------------------------.---
(PID.TID 0000.0001) //     13 --.-----------------------------------------------------------------.---
(PID.TID 0000.0001) //     12 --.-----------------------------------------------------------------.---
(PID.TID 0000.0001) //     11 --.-----------------------------------------------------------------.---
(PID.TID 0000.0001) //     10 --.-----------------------------------------------------------------.---
(PID.TID 0000.0001) //      9 --.-----------------------------------------------------------------.---
(PID.TID 0000.0001) //      8 --.-----------------------------------------------------------------.---
(PID.TID 0000.0001) //      7 --.-----------------------------------------------------------------.---
(PID.TID 0000.0001) //      6 --.-----------------------------------------------------------------.---
(PID.TID 0000.0001) //      5 --.-----------------------------------------------------------------.---
(PID.TID 0000.0001) //      4 --.-----------------------------------------------------------------.---
(PID.TID 0000.0001) //      3 --.-----------------------------------------------------------------.---
(PID.TID 0000.0001) //      2 --.-----------------------------------------------------------------.---
(PID.TID 0000.0001) //      1 --.-----------------------------------------------------------------.---
(PID.TID 0000.0001) //      0 ........................................................................
(PID.TID 0000.0001) //     -1 --.-----------------------------------------------------------------.---
(PID.TID 0000.0001) //     -2 --.-----------------------------------------------------------------.---
(PID.TID 0000.0001) // =======================================================
(PID.TID 0000.0001) // END OF FIELD                                          =
(PID.TID 0000.0001) // =======================================================
(PID.TID 0000.0001) 
(PID.TID 0000.0001) // =======================================================
(PID.TID 0000.0001) // Field hFacW at iteration          1
(PID.TID 0000.0001) // CMIN =          1.000000000000000E+00
(PID.TID 0000.0001) // CMAX =          1.000000000000000E+00
(PID.TID 0000.0001) // CINT =          0.000000000000000E+00
(PID.TID 0000.0001) // SYMBOLS (CMIN->CMAX): -abcdefghijklmnopqrstuvwxyz+
(PID.TID 0000.0001) //                  0.0: .
(PID.TID 0000.0001) // RANGE I (Lo:Hi:Step):(  -2:  63:   1)
(PID.TID 0000.0001) // RANGE J (Lo:Hi:Step):(  63:  -2:  -1)
(PID.TID 0000.0001) // RANGE K (Lo:Hi:Step):(   1:   1:   1)
(PID.TID 0000.0001) // =======================================================
(PID.TID 0000.0001) K =   1
(PID.TID 0000.0001) //                I=7       I=17      I=27      I=31      I=41      I=51      I=61
(PID.TID 0000.0001) // |--J--|**0123456|890123456|890123456|890123890|234567890|234567890|234567890|23
(PID.TID 0000.0001) //     63 --..----------------------------------------------------------------..--
(PID.TID 0000.0001) //     62 --..----------------------------------------------------------------..--
(PID.TID 0000.0001) //     61 --..----------------------------------------------------------------..--
(PID.TID 0000.0001) //     60 ........................................................................
(PID.TID 0000.0001) //     59 --..----------------------------------------------------------------..--
(PID.TID 0000.0001) //     58 --..----------------------------------------------------------------..--
(PID.TID 0000.0001) //     57 --..----------------------------------------------------------------..--
(PID.TID 0000.0001) //     56 --..----------------------------------------------------------------..--
(PID.TID 0000.0001) //     55 --..----------------------------------------------------------------..--
(PID.TID 0000.0001) //     54 --..----------------------------------------------------------------..--
(PID.TID 0000.0001) //     53 --..----------------------------------------------------------------..--
(PID.TID 0000.0001) //     52 --..----------------------------------------------------------------..--
(PID.TID 0000.0001) //     51 --..----------------------------------------------------------------..--
(PID.TID 0000.0001) //     50 --..----------------------------------------------------------------..--
(PID.TID 0000.0001) //     49 --..----------------------------------------------------------------..--
(PID.TID 0000.0001) //     48 --..----------------------------------------------------------------..--
(PID.TID 0000.0001) //     47 --..----------------------------------------------------------------..--
(PID.TID 0000.0001) //     46 --..----------------------------------------------------------------..--
(PID.TID 0000.0001) //     45 --..----------------------------------------------------------------..--
(PID.TID 0000.0001) //     44 --..----------------------------------------------------------------..--
(PID.TID 0000.0001) //     43 --..----------------------------------------------------------------..--
(PID.TID 0000.0001) //     42 --..----------------------------------------------------------------..--
(PID.TID 0000.0001) //     41 --..----------------------------------------------------------------..--
(PID.TID 0000.0001) //     40 --..----------------------------------------------------------------..--
(PID.TID 0000.0001) //     39 --..----------------------------------------------------------------..--
(PID.TID 0000.0001) //     38 --..----------------------------------------------------------------..--
(PID.TID 0000.0001) //     37 --..----------------------------------------------------------------..--
(PID.TID 0000.0001) //     36 --..----------------------------------------------------------------..--
(PID.TID 0000.0001) //     35 --..----------------------------------------------------------------..--
(PID.TID 0000.0001) //     34 --..----------------------------------------------------------------..--
(PID.TID 0000.0001) //     33 --..----------------------------------------------------------------..--
(PID.TID 0000.0001) //     32 --..----------------------------------------------------------------..--
(PID.TID 0000.0001) //     31 --..----------------------------------------------------------------..--
(PID.TID 0000.0001) //     30 --..----------------------------------------------------------------..--
(PID.TID 0000.0001) //     29 --..----------------------------------------------------------------..--
(PID.TID 0000.0001) //     28 --..----------------------------------------------------------------..--
(PID.TID 0000.0001) //     33 --..----------------------------------------------------------------..--
(PID.TID 0000.0001) //     32 --..----------------------------------------------------------------..--
(PID.TID 0000.0001) //     31 --..----------------------------------------------------------------..--
(PID.TID 0000.0001) //     30 --..----------------------------------------------------------------..--
(PID.TID 0000.0001) //     29 --..----------------------------------------------------------------..--
(PID.TID 0000.0001) //     28 --..----------------------------------------------------------------..--
(PID.TID 0000.0001) //     27 --..----------------------------------------------------------------..--
(PID.TID 0000.0001) //     26 --..----------------------------------------------------------------..--
(PID.TID 0000.0001) //     25 --..----------------------------------------------------------------..--
(PID.TID 0000.0001) //     24 --..----------------------------------------------------------------..--
(PID.TID 0000.0001) //     23 --..----------------------------------------------------------------..--
(PID.TID 0000.0001) //     22 --..----------------------------------------------------------------..--
(PID.TID 0000.0001) //     21 --..----------------------------------------------------------------..--
(PID.TID 0000.0001) //     20 --..----------------------------------------------------------------..--
(PID.TID 0000.0001) //     19 --..----------------------------------------------------------------..--
(PID.TID 0000.0001) //     18 --..----------------------------------------------------------------..--
(PID.TID 0000.0001) //     17 --..----------------------------------------------------------------..--
(PID.TID 0000.0001) //     16 --..----------------------------------------------------------------..--
(PID.TID 0000.0001) //     15 --..----------------------------------------------------------------..--
(PID.TID 0000.0001) //     14 --..----------------------------------------------------------------..--
(PID.TID 0000.0001) //     13 --..----------------------------------------------------------------..--
(PID.TID 0000.0001) //     12 --..----------------------------------------------------------------..--
(PID.TID 0000.0001) //     11 --..----------------------------------------------------------------..--
(PID.TID 0000.0001) //     10 --..----------------------------------------------------------------..--
(PID.TID 0000.0001) //      9 --..----------------------------------------------------------------..--
(PID.TID 0000.0001) //      8 --..----------------------------------------------------------------..--
(PID.TID 0000.0001) //      7 --..----------------------------------------------------------------..--
(PID.TID 0000.0001) //      6 --..----------------------------------------------------------------..--
(PID.TID 0000.0001) //      5 --..----------------------------------------------------------------..--
(PID.TID 0000.0001) //      4 --..----------------------------------------------------------------..--
(PID.TID 0000.0001) //      3 --..----------------------------------------------------------------..--
(PID.TID 0000.0001) //      2 --..----------------------------------------------------------------..--
(PID.TID 0000.0001) //      1 --..----------------------------------------------------------------..--
(PID.TID 0000.0001) //      0 ........................................................................
(PID.TID 0000.0001) //     -1 --..----------------------------------------------------------------..--
(PID.TID 0000.0001) //     -2 --..----------------------------------------------------------------..--
(PID.TID 0000.0001) // =======================================================
(PID.TID 0000.0001) // END OF FIELD                                          =
(PID.TID 0000.0001) // =======================================================
(PID.TID 0000.0001) 
(PID.TID 0000.0001) // =======================================================
(PID.TID 0000.0001) // Field hFacS at iteration          1
(PID.TID 0000.0001) // CMIN =          1.000000000000000E+00
(PID.TID 0000.0001) // CMAX =          1.000000000000000E+00
(PID.TID 0000.0001) // CINT =          0.000000000000000E+00
(PID.TID 0000.0001) // SYMBOLS (CMIN->CMAX): -abcdefghijklmnopqrstuvwxyz+
(PID.TID 0000.0001) //                  0.0: .
(PID.TID 0000.0001) // RANGE I (Lo:Hi:Step):(  -2:  63:   1)
(PID.TID 0000.0001) // RANGE J (Lo:Hi:Step):(  63:  -2:  -1)
(PID.TID 0000.0001) // RANGE K (Lo:Hi:Step):(   1:   1:   1)
(PID.TID 0000.0001) // =======================================================
(PID.TID 0000.0001) K =   1
(PID.TID 0000.0001) //                I=7       I=17      I=27      I=31      I=41      I=51      I=61
(PID.TID 0000.0001) // |--J--|**0123456|890123456|890123456|890123890|234567890|234567890|234567890|23
(PID.TID 0000.0001) //     63 --.-----------------------------------------------------------------.---
(PID.TID 0000.0001) //     62 --.-----------------------------------------------------------------.---
(PID.TID 0000.0001) //     61 ........................................................................
(PID.TID 0000.0001) //     60 ........................................................................
(PID.TID 0000.0001) //     59 --.-----------------------------------------------------------------.---
(PID.TID 0000.0001) //     58 --.-----------------------------------------------------------------.---
(PID.TID 0000.0001) //     57 --.-----------------------------------------------------------------.---
(PID.TID 0000.0001) //     56 --.-----------------------------------------------------------------.---
(PID.TID 0000.0001) //     55 --.-----------------------------------------------------------------.---
(PID.TID 0000.0001) //     54 --.-----------------------------------------------------------------.---
(PID.TID 0000.0001) //     53 --.-----------------------------------------------------------------.---
(PID.TID 0000.0001) //     52 --.-----------------------------------------------------------------.---
(PID.TID 0000.0001) //     51 --.-----------------------------------------------------------------.---
(PID.TID 0000.0001) //     50 --.-----------------------------------------------------------------.---
(PID.TID 0000.0001) //     49 --.-----------------------------------------------------------------.---
(PID.TID 0000.0001) //     48 --.-----------------------------------------------------------------.---
(PID.TID 0000.0001) //     47 --.-----------------------------------------------------------------.---
(PID.TID 0000.0001) //     46 --.-----------------------------------------------------------------.---
(PID.TID 0000.0001) //     45 --.-----------------------------------------------------------------.---
(PID.TID 0000.0001) //     44 --.-----------------------------------------------------------------.---
(PID.TID 0000.0001) //     43 --.-----------------------------------------------------------------.---
(PID.TID 0000.0001) //     42 --.-----------------------------------------------------------------.---
(PID.TID 0000.0001) //     41 --.-----------------------------------------------------------------.---
(PID.TID 0000.0001) //     40 --.-----------------------------------------------------------------.---
(PID.TID 0000.0001) //     39 --.-----------------------------------------------------------------.---
(PID.TID 0000.0001) //     38 --.-----------------------------------------------------------------.---
(PID.TID 0000.0001) //     37 --.-----------------------------------------------------------------.---
(PID.TID 0000.0001) //     36 --.-----------------------------------------------------------------.---
(PID.TID 0000.0001) //     35 --.-----------------------------------------------------------------.---
(PID.TID 0000.0001) //     34 --.-----------------------------------------------------------------.---
(PID.TID 0000.0001) //     33 --.-----------------------------------------------------------------.---
(PID.TID 0000.0001) //     32 --.-----------------------------------------------------------------.---
(PID.TID 0000.0001) //     31 --.-----------------------------------------------------------------.---
(PID.TID 0000.0001) //     30 --.-----------------------------------------------------------------.---
(PID.TID 0000.0001) //     29 --.-----------------------------------------------------------------.---
(PID.TID 0000.0001) //     28 --.-----------------------------------------------------------------.---
(PID.TID 0000.0001) //     33 --.-----------------------------------------------------------------.---
(PID.TID 0000.0001) //     32 --.-----------------------------------------------------------------.---
(PID.TID 0000.0001) //     31 --.-----------------------------------------------------------------.---
(PID.TID 0000.0001) //     30 --.-----------------------------------------------------------------.---
(PID.TID 0000.0001) //     29 --.-----------------------------------------------------------------.---
(PID.TID 0000.0001) //     28 --.-----------------------------------------------------------------.---
(PID.TID 0000.0001) //     27 --.-----------------------------------------------------------------.---
(PID.TID 0000.0001) //     26 --.-----------------------------------------------------------------.---
(PID.TID 0000.0001) //     25 --.-----------------------------------------------------------------.---
(PID.TID 0000.0001) //     24 --.-----------------------------------------------------------------.---
(PID.TID 0000.0001) //     23 --.-----------------------------------------------------------------.---
(PID.TID 0000.0001) //     22 --.-----------------------------------------------------------------.---
(PID.TID 0000.0001) //     21 --.-----------------------------------------------------------------.---
(PID.TID 0000.0001) //     20 --.-----------------------------------------------------------------.---
(PID.TID 0000.0001) //     19 --.-----------------------------------------------------------------.---
(PID.TID 0000.0001) //     18 --.-----------------------------------------------------------------.---
(PID.TID 0000.0001) //     17 --.-----------------------------------------------------------------.---
(PID.TID 0000.0001) //     16 --.-----------------------------------------------------------------.---
(PID.TID 0000.0001) //     15 --.-----------------------------------------------------------------.---
(PID.TID 0000.0001) //     14 --.-----------------------------------------------------------------.---
(PID.TID 0000.0001) //     13 --.-----------------------------------------------------------------.---
(PID.TID 0000.0001) //     12 --.-----------------------------------------------------------------.---
(PID.TID 0000.0001) //     11 --.-----------------------------------------------------------------.---
(PID.TID 0000.0001) //     10 --.-----------------------------------------------------------------.---
(PID.TID 0000.0001) //      9 --.-----------------------------------------------------------------.---
(PID.TID 0000.0001) //      8 --.-----------------------------------------------------------------.---
(PID.TID 0000.0001) //      7 --.-----------------------------------------------------------------.---
(PID.TID 0000.0001) //      6 --.-----------------------------------------------------------------.---
(PID.TID 0000.0001) //      5 --.-----------------------------------------------------------------.---
(PID.TID 0000.0001) //      4 --.-----------------------------------------------------------------.---
(PID.TID 0000.0001) //      3 --.-----------------------------------------------------------------.---
(PID.TID 0000.0001) //      2 --.-----------------------------------------------------------------.---
(PID.TID 0000.0001) //      1 ........................................................................
(PID.TID 0000.0001) //      0 ........................................................................
(PID.TID 0000.0001) //     -1 --.-----------------------------------------------------------------.---
(PID.TID 0000.0001) //     -2 --.-----------------------------------------------------------------.---
(PID.TID 0000.0001) // =======================================================
(PID.TID 0000.0001) // END OF FIELD                                          =
(PID.TID 0000.0001) // =======================================================
(PID.TID 0000.0001) 
(PID.TID 0000.0001)  PACKAGE_INIT: opening data.pkg
(PID.TID 0000.0001)  OPEN_COPY_DATA_FILE: opening file data.pkg
(PID.TID 0000.0001) // =======================================================
(PID.TID 0000.0001) // Parameter file "data.pkg"
(PID.TID 0000.0001) // =======================================================
(PID.TID 0000.0001) ># Packages
(PID.TID 0000.0001) > &PACKAGES
(PID.TID 0000.0001) > &
(PID.TID 0000.0001) 
(PID.TID 0000.0001)  PACKAGE_INIT: finished reading data.pkg
(PID.TID 0000.0001) // CG2D normalisation factor =          0.4436063689805808520159186E-04
(PID.TID 0000.0001) 
(PID.TID 0000.0001) // =======================================================
(PID.TID 0000.0001) // Model configuration
(PID.TID 0000.0001) // =======================================================
(PID.TID 0000.0001) //
(PID.TID 0000.0001) // "Physical" paramters ( PARM01 in namelist )
(PID.TID 0000.0001) //
(PID.TID 0000.0001) tRef =   /* Reference temperature profile ( oC or oK ) */
(PID.TID 0000.0001)                 2.000000000000000E+01,      /* K =  1 */
(PID.TID 0000.0001)                 1.000000000000000E+01,      /* K =  2 */
(PID.TID 0000.0001)                 8.000000000000000E+00,      /* K =  3 */
(PID.TID 0000.0001)                 6.000000000000000E+00       /* K =  4 */
(PID.TID 0000.0001)     ;
(PID.TID 0000.0001) sRef =   /* Reference salinity profile ( ppt ) */
(PID.TID 0000.0001)     4 @  1.000000000000000E+01              /* K =  1:  4 */
(PID.TID 0000.0001)     ;
(PID.TID 0000.0001) viscAh =   /* Lateral eddy viscosity ( m^2/s ) */
(PID.TID 0000.0001)                 4.000000000000000E+02
(PID.TID 0000.0001)     ;
(PID.TID 0000.0001) viscAh =   /* Lateral biharmonic viscosity ( m^4/s ) */
(PID.TID 0000.0001)                 0.000000000000000E+00
(PID.TID 0000.0001)     ;
(PID.TID 0000.0001) no_slip_sides =  /* Viscous BCs: No-slip sides */
(PID.TID 0000.0001)                   F
(PID.TID 0000.0001)     ;
(PID.TID 0000.0001) viscAz =   /* Vertical eddy viscosity ( m^2/s ) */
(PID.TID 0000.0001)                 1.000000000000000E-02
(PID.TID 0000.0001)     ;
(PID.TID 0000.0001) viscAr =   /* Vertical eddy viscosity ( units of r^2/s ) */
(PID.TID 0000.0001)                 1.000000000000000E-02
(PID.TID 0000.0001)     ;
(PID.TID 0000.0001) diffKhT =   /* Laplacian diffusion of heat laterally ( m^2/s ) */
(PID.TID 0000.0001)                 4.000000000000000E+02
(PID.TID 0000.0001)     ;
(PID.TID 0000.0001) diffK4T =   /* Bihaarmonic diffusion of heat laterally ( m^4/s ) */
(PID.TID 0000.0001)                 0.000000000000000E+00
(PID.TID 0000.0001)     ;
(PID.TID 0000.0001) diffKzT =   /* Laplacian diffusion of heat vertically ( m^2/s ) */
(PID.TID 0000.0001)                 1.000000000000000E-02
(PID.TID 0000.0001)     ;
(PID.TID 0000.0001) diffKrT =   /* Laplacian diffusion of heat vertically ( m^2/s ) */
(PID.TID 0000.0001)                 1.000000000000000E-02
(PID.TID 0000.0001)     ;
(PID.TID 0000.0001) diffKhS =   /* Laplacian diffusion of salt laterally ( m^2/s ) */
(PID.TID 0000.0001)                 0.000000000000000E+00
(PID.TID 0000.0001)     ;
(PID.TID 0000.0001) diffK4S =   /* Bihaarmonic diffusion of salt laterally ( m^4/s ) */
(PID.TID 0000.0001)                 0.000000000000000E+00
(PID.TID 0000.0001)     ;
(PID.TID 0000.0001) diffKzS =   /* Laplacian diffusion of salt vertically ( m^2/s ) */
(PID.TID 0000.0001)                 1.234567000000000E+05
(PID.TID 0000.0001)     ;
(PID.TID 0000.0001) diffKrS =   /* Laplacian diffusion of salt vertically ( m^2/s ) */
(PID.TID 0000.0001)                 0.000000000000000E+00
(PID.TID 0000.0001)     ;
(PID.TID 0000.0001) tAlpha =   /* Linear EOS thermal expansion coefficient ( 1/degree ) */
(PID.TID 0000.0001)                 2.000000000000000E-04
(PID.TID 0000.0001)     ;
(PID.TID 0000.0001) sBeta =   /* Linear EOS haline contraction coefficient ( 1/ppt ) */
(PID.TID 0000.0001)                 0.000000000000000E+00
(PID.TID 0000.0001)     ;
(PID.TID 0000.0001) rhonil =   /* Reference density ( kg/m^3 ) */
(PID.TID 0000.0001)                 9.998000000000000E+02
(PID.TID 0000.0001)     ;
(PID.TID 0000.0001) rhoConst =   /* Reference density ( kg/m^3 ) */
(PID.TID 0000.0001)                 9.998000000000000E+02
(PID.TID 0000.0001)     ;
(PID.TID 0000.0001) gravity =   /* Gravitational acceleration ( m/s^2 ) */
(PID.TID 0000.0001)                 9.810000000000000E+00
(PID.TID 0000.0001)     ;
(PID.TID 0000.0001) gBaro =   /* Barotropic gravity ( m/s^2 ) */
(PID.TID 0000.0001)                 9.810000000000000E+00
(PID.TID 0000.0001)     ;
(PID.TID 0000.0001) f0 =   /* Reference coriolis parameter ( 1/s ) */
(PID.TID 0000.0001)                 1.000000000000000E-04
(PID.TID 0000.0001)     ;
(PID.TID 0000.0001) beta =   /* Beta ( 1/(m.s) ) */
(PID.TID 0000.0001)                 9.999999999999999E-12
(PID.TID 0000.0001)     ;
(PID.TID 0000.0001) freeSurfFac =   /* Implcit free surface factor */
(PID.TID 0000.0001)                 1.000000000000000E+00
(PID.TID 0000.0001)     ;
(PID.TID 0000.0001) implicitFreeSurface =   /* Implicit free surface on/off flag */
(PID.TID 0000.0001)                   T
(PID.TID 0000.0001)     ;
(PID.TID 0000.0001) rigidLid =   /* Rigid lid on/off flag */
(PID.TID 0000.0001)                   F
(PID.TID 0000.0001)     ;
(PID.TID 0000.0001) momStepping =  /* Momentum equation on/off flag */
(PID.TID 0000.0001)                   T
(PID.TID 0000.0001)     ;
(PID.TID 0000.0001) momAdvection =  /* Momentum advection on/off flag */
(PID.TID 0000.0001)                   T
(PID.TID 0000.0001)     ;
(PID.TID 0000.0001) momViscosity =  /* Momentum viscosity on/off flag */
(PID.TID 0000.0001)                   T
(PID.TID 0000.0001)     ;
(PID.TID 0000.0001) useCoriolis =  /* Coriolis on/off flag */
(PID.TID 0000.0001)                   T
(PID.TID 0000.0001)     ;
(PID.TID 0000.0001) momForcing =  /* Momentum forcing on/off flag */
(PID.TID 0000.0001)                   T
(PID.TID 0000.0001)     ;
(PID.TID 0000.0001) momPressureForcing =  /* Momentum pressure term on/off flag */
(PID.TID 0000.0001)                   T
(PID.TID 0000.0001)     ;
(PID.TID 0000.0001) tempStepping =  /* Temperature equation on/off flag */
(PID.TID 0000.0001)                   T
(PID.TID 0000.0001)     ;
(PID.TID 0000.0001) nonHydrostatic =  /* Non-Hydrostatic on/off flag */
(PID.TID 0000.0001)                   F
(PID.TID 0000.0001)     ;
(PID.TID 0000.0001) //
(PID.TID 0000.0001) // Elliptic solver(s) paramters ( PARM02 in namelist )
(PID.TID 0000.0001) //
(PID.TID 0000.0001) cg2dMaxIters =   /* Upper limit on 2d con. grad iterations  */
(PID.TID 0000.0001)                    1000
(PID.TID 0000.0001)     ;
(PID.TID 0000.0001) cg2dChkResFreq =   /* 2d con. grad convergence test frequency */
(PID.TID 0000.0001)                       1
(PID.TID 0000.0001)     ;
(PID.TID 0000.0001) cg2dTargetResidual =   /* 2d con. grad target residual  */
(PID.TID 0000.0001)                 1.000000000000000E-13
(PID.TID 0000.0001)     ;
(PID.TID 0000.0001) //
(PID.TID 0000.0001) // Time stepping paramters ( PARM03 in namelist )
(PID.TID 0000.0001) //
(PID.TID 0000.0001) nIter0 =   /* Base timestep number  */
(PID.TID 0000.0001)                       0
(PID.TID 0000.0001)     ;
(PID.TID 0000.0001) nTimeSteps =   /* Number of timesteps */
(PID.TID 0000.0001)                      10
(PID.TID 0000.0001)     ;
(PID.TID 0000.0001) deltatTmom =   /* Momentum equation timestep ( s ) */
(PID.TID 0000.0001)                 1.200000000000000E+03
(PID.TID 0000.0001)     ;
(PID.TID 0000.0001) deltatTtracer =   /* Tracer equation timestep ( s ) */
(PID.TID 0000.0001)                 1.200000000000000E+03
(PID.TID 0000.0001)     ;
(PID.TID 0000.0001) deltatTClock  =   /* Model clock timestep ( s ) */
(PID.TID 0000.0001)                 1.200000000000000E+03
(PID.TID 0000.0001)     ;
(PID.TID 0000.0001) cAdjFreq =   /* Convective adjustment interval ( s ) */
(PID.TID 0000.0001)                 0.000000000000000E+00
(PID.TID 0000.0001)     ;
(PID.TID 0000.0001) abeps =   /* Adams-Bashforth stabilizing weight */
(PID.TID 0000.0001)                 1.000000000000000E-01
(PID.TID 0000.0001)     ;
(PID.TID 0000.0001) tauCD =   /* CD coupling time-scale ( s ) */
(PID.TID 0000.0001)                 1.200000000000000E+03
(PID.TID 0000.0001)     ;
(PID.TID 0000.0001) rCD =   /* Normalised CD coupling parameter */
(PID.TID 0000.0001)                 0.000000000000000E+00
(PID.TID 0000.0001)     ;
(PID.TID 0000.0001) startTime =   /* Run start time ( s ). */
(PID.TID 0000.0001)                 0.000000000000000E+00
(PID.TID 0000.0001)     ;
(PID.TID 0000.0001) endTime =   /* Integration ending time ( s ). */
(PID.TID 0000.0001)                 1.200000000000000E+04
(PID.TID 0000.0001)     ;
(PID.TID 0000.0001) pChkPtFreq =   /* Permanent restart/checkpoint file interval ( s ). */
(PID.TID 0000.0001)                 1.700000000000000E+04
(PID.TID 0000.0001)     ;
(PID.TID 0000.0001) chkPtFreq =   /* Rolling restart/checkpoint file interval ( s ). */
(PID.TID 0000.0001)                 0.000000000000000E+00
(PID.TID 0000.0001)     ;
(PID.TID 0000.0001) dumpFreq =   /* Model state write out interval ( s ). */
(PID.TID 0000.0001)                 2.592000000000000E+06
(PID.TID 0000.0001)     ;
(PID.TID 0000.0001) //
(PID.TID 0000.0001) // Gridding paramters ( PARM04 in namelist )
(PID.TID 0000.0001) //
(PID.TID 0000.0001) usingCartesianGrid =   /* Cartesian coordinates flag ( True / False ) */
(PID.TID 0000.0001)                   F
(PID.TID 0000.0001)     ;
(PID.TID 0000.0001) usingSphericalPolarGrid =   /* Spherical coordinates flag ( True / False ) */
(PID.TID 0000.0001)                   T
(PID.TID 0000.0001)     ;
(PID.TID 0000.0001) groundAtK1 =   /* Lower Boundary (ground) at the surface(k=1) ( T / F ) */
(PID.TID 0000.0001)                   F
(PID.TID 0000.0001)     ;
(PID.TID 0000.0001) Ro_SeaLevel =   /* r(1) ( units of r ) */
(PID.TID 0000.0001)                 0.000000000000000E+00
(PID.TID 0000.0001)     ;
(PID.TID 0000.0001) rkFac =   /* minus Vertical index orientation  */
(PID.TID 0000.0001)                 1.000000000000000E+00
(PID.TID 0000.0001)     ;
(PID.TID 0000.0001) horiVertRatio =   /* Ratio on units : Horiz - Vertical */
(PID.TID 0000.0001)                 1.000000000000000E+00
(PID.TID 0000.0001)     ;
(PID.TID 0000.0001) delZ =   /* W spacing ( m ) */
(PID.TID 0000.0001)     4 @  5.000000000000000E+02              /* K =  1:  4 */
(PID.TID 0000.0001)     ;
(PID.TID 0000.0001) delP =   /* W spacing ( Pa ) */
(PID.TID 0000.0001)     4 @  1.234567000000000E+05              /* K =  1:  4 */
(PID.TID 0000.0001)     ;
(PID.TID 0000.0001) delR =   /* W spacing ( units of r ) */
(PID.TID 0000.0001)     4 @  5.000000000000000E+02              /* K =  1:  4 */
(PID.TID 0000.0001)     ;
(PID.TID 0000.0001) delX =   /* U spacing ( m - cartesian, degrees - spherical ) */
(PID.TID 0000.0001)    60 @  1.000000000000000E+00              /* I =  1: 60 */
(PID.TID 0000.0001)     ;
(PID.TID 0000.0001) delY =   /* V spacing ( m - cartesian, degrees - spherical ) */
(PID.TID 0000.0001)    60 @  1.000000000000000E+00              /* J =  1: 60 */
(PID.TID 0000.0001)     ;
(PID.TID 0000.0001) phiMin =    /* South edge (ignored - cartesian, degrees - spherical ) */
(PID.TID 0000.0001)                -3.000000000000000E+01
(PID.TID 0000.0001)     ;
(PID.TID 0000.0001) thetaMin =    /* West edge ( ignored - cartesian, degrees - spherical ) */
(PID.TID 0000.0001)                 0.000000000000000E+00
(PID.TID 0000.0001)     ;
(PID.TID 0000.0001) rSphere =    /* Radius ( ignored - cartesian, m - spherical ) */
(PID.TID 0000.0001)                 6.370000000000000E+06
(PID.TID 0000.0001)     ;
(PID.TID 0000.0001) xcoord =   /* P-point X coord ( m - cartesian, degrees - spherical ) */
(PID.TID 0000.0001)                 5.000000000000000E-01,      /* I =  1 */
(PID.TID 0000.0001)                 1.500000000000000E+00,      /* I =  2 */
(PID.TID 0000.0001)                 2.500000000000000E+00,      /* I =  3 */
(PID.TID 0000.0001)                 3.500000000000000E+00,      /* I =  4 */
(PID.TID 0000.0001)                 4.500000000000000E+00,      /* I =  5 */
(PID.TID 0000.0001)                 5.500000000000000E+00,      /* I =  6 */
(PID.TID 0000.0001)                 6.500000000000000E+00,      /* I =  7 */
(PID.TID 0000.0001)                 7.500000000000000E+00,      /* I =  8 */
(PID.TID 0000.0001)                 8.500000000000000E+00,      /* I =  9 */
(PID.TID 0000.0001)                 9.500000000000000E+00,      /* I = 10 */
(PID.TID 0000.0001)                 1.050000000000000E+01,      /* I = 11 */
(PID.TID 0000.0001)                 1.150000000000000E+01,      /* I = 12 */
(PID.TID 0000.0001)                 1.250000000000000E+01,      /* I = 13 */
(PID.TID 0000.0001)                 1.350000000000000E+01,      /* I = 14 */
(PID.TID 0000.0001)                 1.450000000000000E+01,      /* I = 15 */
(PID.TID 0000.0001)                 1.550000000000000E+01,      /* I = 16 */
(PID.TID 0000.0001)                 1.650000000000000E+01,      /* I = 17 */
(PID.TID 0000.0001)                 1.750000000000000E+01,      /* I = 18 */
(PID.TID 0000.0001)                 1.850000000000000E+01,      /* I = 19 */
(PID.TID 0000.0001)                 1.950000000000000E+01,      /* I = 20 */
(PID.TID 0000.0001)                 2.050000000000000E+01,      /* I = 21 */
(PID.TID 0000.0001)                 2.150000000000000E+01,      /* I = 22 */
(PID.TID 0000.0001)                 2.250000000000000E+01,      /* I = 23 */
(PID.TID 0000.0001)                 2.350000000000000E+01,      /* I = 24 */
(PID.TID 0000.0001)                 2.450000000000000E+01,      /* I = 25 */
(PID.TID 0000.0001)                 2.550000000000000E+01,      /* I = 26 */
(PID.TID 0000.0001)                 2.650000000000000E+01,      /* I = 27 */
(PID.TID 0000.0001)                 2.750000000000000E+01,      /* I = 28 */
(PID.TID 0000.0001)                 2.850000000000000E+01,      /* I = 29 */
(PID.TID 0000.0001)                 2.950000000000000E+01,      /* I = 30 */
(PID.TID 0000.0001)                 3.050000000000000E+01,      /* I = 31 */
(PID.TID 0000.0001)                 3.150000000000000E+01,      /* I = 32 */
(PID.TID 0000.0001)                 3.250000000000000E+01,      /* I = 33 */
(PID.TID 0000.0001)                 3.350000000000000E+01,      /* I = 34 */
(PID.TID 0000.0001)                 3.450000000000000E+01,      /* I = 35 */
(PID.TID 0000.0001)                 3.550000000000000E+01,      /* I = 36 */
(PID.TID 0000.0001)                 3.650000000000000E+01,      /* I = 37 */
(PID.TID 0000.0001)                 3.750000000000000E+01,      /* I = 38 */
(PID.TID 0000.0001)                 3.850000000000000E+01,      /* I = 39 */
(PID.TID 0000.0001)                 3.950000000000000E+01,      /* I = 40 */
(PID.TID 0000.0001)                 4.050000000000000E+01,      /* I = 41 */
(PID.TID 0000.0001)                 4.150000000000000E+01,      /* I = 42 */
(PID.TID 0000.0001)                 4.250000000000000E+01,      /* I = 43 */
(PID.TID 0000.0001)                 4.350000000000000E+01,      /* I = 44 */
(PID.TID 0000.0001)                 4.450000000000000E+01,      /* I = 45 */
(PID.TID 0000.0001)                 4.550000000000000E+01,      /* I = 46 */
(PID.TID 0000.0001)                 4.650000000000000E+01,      /* I = 47 */
(PID.TID 0000.0001)                 4.750000000000000E+01,      /* I = 48 */
(PID.TID 0000.0001)                 4.850000000000000E+01,      /* I = 49 */
(PID.TID 0000.0001)                 4.950000000000000E+01,      /* I = 50 */
(PID.TID 0000.0001)                 5.050000000000000E+01,      /* I = 51 */
(PID.TID 0000.0001)                 5.150000000000000E+01,      /* I = 52 */
(PID.TID 0000.0001)                 5.250000000000000E+01,      /* I = 53 */
(PID.TID 0000.0001)                 5.350000000000000E+01,      /* I = 54 */
(PID.TID 0000.0001)                 5.450000000000000E+01,      /* I = 55 */
(PID.TID 0000.0001)                 5.550000000000000E+01,      /* I = 56 */
(PID.TID 0000.0001)                 5.650000000000000E+01,      /* I = 57 */
(PID.TID 0000.0001)                 5.750000000000000E+01,      /* I = 58 */
(PID.TID 0000.0001)                 5.850000000000000E+01,      /* I = 59 */
(PID.TID 0000.0001)                 5.950000000000000E+01       /* I = 60 */
(PID.TID 0000.0001)     ;
(PID.TID 0000.0001) ycoord =   /* P-point Y coord ( m - cartesian, degrees - spherical ) */
(PID.TID 0000.0001)                -2.950000000000000E+01,      /* J =  1 */
(PID.TID 0000.0001)                -2.850000000000000E+01,      /* J =  2 */
(PID.TID 0000.0001)                -2.750000000000000E+01,      /* J =  3 */
(PID.TID 0000.0001)                -2.650000000000000E+01,      /* J =  4 */
(PID.TID 0000.0001)                -2.550000000000000E+01,      /* J =  5 */
(PID.TID 0000.0001)                -2.450000000000000E+01,      /* J =  6 */
(PID.TID 0000.0001)                -2.350000000000000E+01,      /* J =  7 */
(PID.TID 0000.0001)                -2.250000000000000E+01,      /* J =  8 */
(PID.TID 0000.0001)                -2.150000000000000E+01,      /* J =  9 */
(PID.TID 0000.0001)                -2.050000000000000E+01,      /* J = 10 */
(PID.TID 0000.0001)                -1.950000000000000E+01,      /* J = 11 */
(PID.TID 0000.0001)                -1.850000000000000E+01,      /* J = 12 */
(PID.TID 0000.0001)                -1.750000000000000E+01,      /* J = 13 */
(PID.TID 0000.0001)                -1.650000000000000E+01,      /* J = 14 */
(PID.TID 0000.0001)                -1.550000000000000E+01,      /* J = 15 */
(PID.TID 0000.0001)                -1.450000000000000E+01,      /* J = 16 */
(PID.TID 0000.0001)                -1.350000000000000E+01,      /* J = 17 */
(PID.TID 0000.0001)                -1.250000000000000E+01,      /* J = 18 */
(PID.TID 0000.0001)                -1.150000000000000E+01,      /* J = 19 */
(PID.TID 0000.0001)                -1.050000000000000E+01,      /* J = 20 */
(PID.TID 0000.0001)                -9.500000000000000E+00,      /* J = 21 */
(PID.TID 0000.0001)                -8.500000000000000E+00,      /* J = 22 */
(PID.TID 0000.0001)                -7.500000000000000E+00,      /* J = 23 */
(PID.TID 0000.0001)                -6.500000000000000E+00,      /* J = 24 */
(PID.TID 0000.0001)                -5.500000000000000E+00,      /* J = 25 */
(PID.TID 0000.0001)                -4.500000000000000E+00,      /* J = 26 */
(PID.TID 0000.0001)                -3.500000000000000E+00,      /* J = 27 */
(PID.TID 0000.0001)                -2.500000000000000E+00,      /* J = 28 */
(PID.TID 0000.0001)                -1.500000000000000E+00,      /* J = 29 */
(PID.TID 0000.0001)                -5.000000000000000E-01,      /* J = 30 */
(PID.TID 0000.0001)                 5.000000000000000E-01,      /* J = 31 */
(PID.TID 0000.0001)                 1.500000000000000E+00,      /* J = 32 */
(PID.TID 0000.0001)                 2.500000000000000E+00,      /* J = 33 */
(PID.TID 0000.0001)                 3.500000000000000E+00,      /* J = 34 */
(PID.TID 0000.0001)                 4.500000000000000E+00,      /* J = 35 */
(PID.TID 0000.0001)                 5.500000000000000E+00,      /* J = 36 */
(PID.TID 0000.0001)                 6.500000000000000E+00,      /* J = 37 */
(PID.TID 0000.0001)                 7.500000000000000E+00,      /* J = 38 */
(PID.TID 0000.0001)                 8.500000000000000E+00,      /* J = 39 */
(PID.TID 0000.0001)                 9.500000000000000E+00,      /* J = 40 */
(PID.TID 0000.0001)                 1.050000000000000E+01,      /* J = 41 */
[...]
(PID.TID 0000.0001)     20 -----------------------------------------------------------.
(PID.TID 0000.0001)     19 -----------------------------------------------------------.
(PID.TID 0000.0001)     18 -----------------------------------------------------------.
(PID.TID 0000.0001)     17 -----------------------------------------------------------.
(PID.TID 0000.0001)     16 -----------------------------------------------------------.
(PID.TID 0000.0001)     15 -----------------------------------------------------------.
(PID.TID 0000.0001)     14 -----------------------------------------------------------.
(PID.TID 0000.0001)     13 -----------------------------------------------------------.
(PID.TID 0000.0001)     12 -----------------------------------------------------------.
(PID.TID 0000.0001)     11 -----------------------------------------------------------.
(PID.TID 0000.0001)     10 -----------------------------------------------------------.
(PID.TID 0000.0001)      9 -----------------------------------------------------------.
(PID.TID 0000.0001)      8 -----------------------------------------------------------.
(PID.TID 0000.0001)      7 -----------------------------------------------------------.
(PID.TID 0000.0001)      6 -----------------------------------------------------------.
(PID.TID 0000.0001)      5 -----------------------------------------------------------.
(PID.TID 0000.0001)      4 -----------------------------------------------------------.
(PID.TID 0000.0001)      3 -----------------------------------------------------------.
(PID.TID 0000.0001)      2 -----------------------------------------------------------.
(PID.TID 0000.0001)      1 -----------------------------------------------------------.
(PID.TID 0000.0001) // =======================================================
(PID.TID 0000.0001) // END OF FIELD                                          =
(PID.TID 0000.0001) // =======================================================
(PID.TID 0000.0001) 
(PID.TID 0000.0001) // =======================================================
(PID.TID 0000.0001) // Field Current cg2d_x  at iteration          0
(PID.TID 0000.0001) // CMIN =          1.000000000000000E+32
(PID.TID 0000.0001) // CMAX =         -1.000000000000000E+32
(PID.TID 0000.0001) // CINT =          0.000000000000000E+00
(PID.TID 0000.0001) // SYMBOLS (CMIN->CMAX): -abcdefghijklmnopqrstuvwxyz+
(PID.TID 0000.0001) //                  0.0: .
(PID.TID 0000.0001) // RANGE I (Lo:Hi:Step):(  -2:  63:   1)
(PID.TID 0000.0001) // RANGE J (Lo:Hi:Step):(  63:  -2:  -1)
(PID.TID 0000.0001) // RANGE K (Lo:Hi:Step):(   1:   1:   1)
(PID.TID 0000.0001) // =======================================================
(PID.TID 0000.0001) K =   1
(PID.TID 0000.0001)                I=7       I=17      I=27      I=31      I=41      I=51      I=61
(PID.TID 0000.0001) |--J--|**0123456|890123456|890123456|890123890|234567890|234567890|234567890|23
(PID.TID 0000.0001)     63 ........................................................................
(PID.TID 0000.0001)     62 ........................................................................
(PID.TID 0000.0001)     61 ........................................................................
(PID.TID 0000.0001)     60 ........................................................................
(PID.TID 0000.0001)     59 ........................................................................
(PID.TID 0000.0001)     58 ........................................................................
(PID.TID 0000.0001)     57 ........................................................................
(PID.TID 0000.0001)     56 ........................................................................
(PID.TID 0000.0001)     55 ........................................................................
(PID.TID 0000.0001)     54 ........................................................................
(PID.TID 0000.0001)     53 ........................................................................
(PID.TID 0000.0001)     52 ........................................................................
(PID.TID 0000.0001)     51 ........................................................................
(PID.TID 0000.0001)     50 ........................................................................
(PID.TID 0000.0001)     49 ........................................................................
(PID.TID 0000.0001)     48 ........................................................................
(PID.TID 0000.0001)     47 ........................................................................
(PID.TID 0000.0001)     46 ........................................................................
(PID.TID 0000.0001)     45 ........................................................................
(PID.TID 0000.0001)     44 ........................................................................
(PID.TID 0000.0001)     43 ........................................................................
(PID.TID 0000.0001)     42 ........................................................................
(PID.TID 0000.0001)     41 ........................................................................
(PID.TID 0000.0001)     40 ........................................................................
(PID.TID 0000.0001)     39 ........................................................................
(PID.TID 0000.0001)     38 ........................................................................
(PID.TID 0000.0001)     37 ........................................................................
(PID.TID 0000.0001)     36 ........................................................................
(PID.TID 0000.0001)     35 ........................................................................
(PID.TID 0000.0001)     34 ........................................................................
(PID.TID 0000.0001)     33 ........................................................................
(PID.TID 0000.0001)     32 ........................................................................
(PID.TID 0000.0001)     31 ........................................................................
(PID.TID 0000.0001)     30 ........................................................................
(PID.TID 0000.0001)     29 ........................................................................
(PID.TID 0000.0001)     28 ........................................................................
(PID.TID 0000.0001)     33 ........................................................................
(PID.TID 0000.0001)     32 ........................................................................
(PID.TID 0000.0001)     31 ........................................................................
(PID.TID 0000.0001)     30 ........................................................................
(PID.TID 0000.0001)     29 ........................................................................
(PID.TID 0000.0001)     28 ........................................................................
(PID.TID 0000.0001)     27 ........................................................................
(PID.TID 0000.0001)     26 ........................................................................
(PID.TID 0000.0001)     25 ........................................................................
(PID.TID 0000.0001)     24  cg2d: Sum(rhs) =          -6.10275718848641E-15
 CG2D iters, err =      0          7.68114574786861E+00
 CG2D iters, err =     36          5.24380765561216E-14
 cg2d: Sum(rhs) =          -5.94593818625810E-14
 CG2D iters, err =      0          3.95921718608974E+00
 CG2D iters, err =     35          5.69994337236357E-14
 cg2d: Sum(rhs) =          -9.77412595304372E-14
 CG2D iters, err =      0          3.41677628016159E+00
 CG2D iters, err =     34          5.99777765362407E-14
 cg2d: Sum(rhs) =          -4.41924274952044E-13
 CG2D iters, err =      0          3.12852256152321E+00
 CG2D iters, err =     34          7.23623745056156E-14
 cg2d: Sum(rhs) =          -4.06966127464159E-13
 CG2D iters, err =      0          2.91140048391035E+00
 CG2D iters, err =     34          7.61936513018336E-14
 cg2d: Sum(rhs) =          -2.42833531061137E-13
 CG2D iters, err =      0          2.73407047707953E+00
 CG2D iters, err =     34          7.65803388900997E-14
 cg2d: Sum(rhs) =          -1.73278058568371E-13
 CG2D iters, err =      0          2.58574430220921E+00
 CG2D iters, err =     34          6.87507006204929E-14
 cg2d: Sum(rhs) =          -5.01043651013333E-13
 CG2D iters, err =      0          2.45939264348956E+00
 CG2D iters, err =     34          6.57682513428653E-14
 cg2d: Sum(rhs) =          -5.37375699494191E-13
 CG2D iters, err =      0          2.34990179150874E+00
 CG2D iters, err =     34          6.30482116953699E-14
 cg2d: Sum(rhs) =          -2.93987056920741E-13
 CG2D iters, err =      0          2.25359994993416E+00
 CG2D iters, err =     34          5.95818232573477E-14
........................................................................
(PID.TID 0000.0001)     23 ........................................................................
(PID.TID 0000.0001)     22 ........................................................................
(PID.TID 0000.0001)     21 ........................................................................
(PID.TID 0000.0001)     20 ........................................................................
(PID.TID 0000.0001)     19 ........................................................................
(PID.TID 0000.0001)     18 ........................................................................
(PID.TID 0000.0001)     17 ........................................................................
(PID.TID 0000.0001)     16 ........................................................................
(PID.TID 0000.0001)     15 ........................................................................
(PID.TID 0000.0001)     14 ........................................................................
(PID.TID 0000.0001)     13 ........................................................................
(PID.TID 0000.0001)     12 ........................................................................
(PID.TID 0000.0001)     11 ........................................................................
(PID.TID 0000.0001)     10 ........................................................................
(PID.TID 0000.0001)      9 ........................................................................
(PID.TID 0000.0001)      8 ........................................................................
(PID.TID 0000.0001)      7 ........................................................................
(PID.TID 0000.0001)      6 ........................................................................
(PID.TID 0000.0001)      5 ........................................................................
(PID.TID 0000.0001)      4 ........................................................................
(PID.TID 0000.0001)      3 ........................................................................
(PID.TID 0000.0001)      2 ........................................................................
(PID.TID 0000.0001)      1 ........................................................................
(PID.TID 0000.0001)      0 ........................................................................
(PID.TID 0000.0001)     -1 ........................................................................
(PID.TID 0000.0001)     -2 ........................................................................
(PID.TID 0000.0001) // =======================================================
(PID.TID 0000.0001) // END OF FIELD                                          =
(PID.TID 0000.0001) // =======================================================
(PID.TID 0000.0001) 
(PID.TID 0000.0001)   Seconds in section "ALL                [THE_MODEL_MAIN]":
(PID.TID 0000.0001)           User time:  3.35999989
(PID.TID 0000.0001)         System time:  0.100000001
(PID.TID 0000.0001)     Wall clock time:  3.54383099
(PID.TID 0000.0001)          No. starts: 1
(PID.TID 0000.0001)           No. stops: 1
(PID.TID 0000.0001)   Seconds in section "INITIALISE_FIXED   [THE_MODEL_MAIN]":
(PID.TID 0000.0001)           User time:  0.160000002
(PID.TID 0000.0001)         System time:  0.
(PID.TID 0000.0001)     Wall clock time:  0.164643049
(PID.TID 0000.0001)          No. starts: 1
(PID.TID 0000.0001)           No. stops: 1
(PID.TID 0000.0001)   Seconds in section "THE_MAIN_LOOP      [THE_MODEL_MAIN]":
(PID.TID 0000.0001)           User time:  3.19999988
(PID.TID 0000.0001)         System time:  0.100000001
(PID.TID 0000.0001)     Wall clock time:  3.37899303
(PID.TID 0000.0001)          No. starts: 1
(PID.TID 0000.0001)           No. stops: 1
(PID.TID 0000.0001)   Seconds in section "SPIN-UP            [THE_MAIN_LOOP]":
(PID.TID 0000.0001)           User time:  0.0699999928
(PID.TID 0000.0001)         System time:  0.00999999978
(PID.TID 0000.0001)     Wall clock time:  0.0780179501
(PID.TID 0000.0001)          No. starts: 1
(PID.TID 0000.0001)           No. stops: 1
(PID.TID 0000.0001)   Seconds in section "INITIALISE_VARIA   [THE_MAIN_LOOP]":
(PID.TID 0000.0001)           User time:  0.0399999917
(PID.TID 0000.0001)         System time:  0.00999999978
(PID.TID 0000.0001)     Wall clock time:  0.0469748974
(PID.TID 0000.0001)          No. starts: 1
(PID.TID 0000.0001)           No. stops: 1
(PID.TID 0000.0001)   Seconds in section "I/O (WRITE)        [THE_MAIN_LOOP]":
(PID.TID 0000.0001)           User time:  0.159999877
(PID.TID 0000.0001)         System time:  0.0800000038
(PID.TID 0000.0001)     Wall clock time:  0.294863105
(PID.TID 0000.0001)          No. starts: 2
(PID.TID 0000.0001)           No. stops: 2
(PID.TID 0000.0001)   Seconds in section "MAIN LOOP          [THE_MAIN_LOOP]":
(PID.TID 0000.0001)           User time:  2.4100001
(PID.TID 0000.0001)         System time:  0.
(PID.TID 0000.0001)     Wall clock time:  2.40606499
(PID.TID 0000.0001)          No. starts: 1
(PID.TID 0000.0001)           No. stops: 1
(PID.TID 0000.0001)   Seconds in section "FORWARD_STEP       [THE_MAIN_LOOP]":
(PID.TID 0000.0001)           User time:  3.00000001
(PID.TID 0000.0001)         System time:  0.00999999791
(PID.TID 0000.0001)     Wall clock time:  3.03595984
(PID.TID 0000.0001)          No. starts: 11
(PID.TID 0000.0001)           No. stops: 11
(PID.TID 0000.0001)   Seconds in section "I/O (READ)         [FORWARD_STEP]":
(PID.TID 0000.0001)           User time:  0.
(PID.TID 0000.0001)         System time:  0.
(PID.TID 0000.0001)     Wall clock time:  0.000621080399
(PID.TID 0000.0001)          No. starts: 11
(PID.TID 0000.0001)           No. stops: 11
(PID.TID 0000.0001)   Seconds in section "DYNAMICS           [FORWARD_STEP]":
(PID.TID 0000.0001)           User time:  2.01999952
(PID.TID 0000.0001)         System time:  0.
(PID.TID 0000.0001)     Wall clock time:  2.05973434
(PID.TID 0000.0001)          No. starts: 11
(PID.TID 0000.0001)           No. stops: 11
(PID.TID 0000.0001)   Seconds in section "I/O (WRITE)        [FORWARD_STEP]":
(PID.TID 0000.0001)           User time:  0.0499999821
(PID.TID 0000.0001)         System time:  0.00999999791
(PID.TID 0000.0001)     Wall clock time:  0.0594420433
(PID.TID 0000.0001)          No. starts: 21
(PID.TID 0000.0001)           No. stops: 21
(PID.TID 0000.0001)   Seconds in section "SOLVE_FOR_PRESSURE [FORWARD_STEP]":
(PID.TID 0000.0001)           User time:  0.770000458
(PID.TID 0000.0001)         System time:  0.
(PID.TID 0000.0001)     Wall clock time:  0.786434293
(PID.TID 0000.0001)          No. starts: 10
(PID.TID 0000.0001)           No. stops: 10
(PID.TID 0000.0001)   Seconds in section "BLOCKING_EXCHANGES [FORWARD_STEP]":
(PID.TID 0000.0001)           User time:  0.0599999428
(PID.TID 0000.0001)         System time:  0.
(PID.TID 0000.0001)     Wall clock time:  0.0411441326
(PID.TID 0000.0001)          No. starts: 10
(PID.TID 0000.0001)           No. stops: 10
(PID.TID 0000.0001)   Seconds in section "SPIN-DOWN          [THE_MAIN_LOOP]":
(PID.TID 0000.0001)           User time:  0.71999979
(PID.TID 0000.0001)         System time:  0.0900000017
(PID.TID 0000.0001)     Wall clock time:  0.89467597
(PID.TID 0000.0001)          No. starts: 1
(PID.TID 0000.0001)           No. stops: 1
(PID.TID 0000.0001) // ======================================================
(PID.TID 0000.0001) // Tile <-> Tile communication statistics
(PID.TID 0000.0001) // ======================================================
(PID.TID 0000.0001) // o Tile number: 000001
(PID.TID 0000.0001) //         No. X exchanges =            824
(PID.TID 0000.0001) //            Max. X spins =              1
(PID.TID 0000.0001) //            Min. X spins =              1
(PID.TID 0000.0001) //          Total. X spins =            824
(PID.TID 0000.0001) //            Avg. X spins =       1.00E+00
(PID.TID 0000.0001) //         No. Y exchanges =            824
(PID.TID 0000.0001) //            Max. Y spins =              1
(PID.TID 0000.000STOP NORMAL END statement executed
1) //            Min. Y spins =              1
(PID.TID 0000.0001) //          Total. Y spins =            824
(PID.TID 0000.0001) //            Avg. Y spins =       1.00E+00
(PID.TID 0000.0001) // o Tile number: 000002
(PID.TID 0000.0001) //         No. X exchanges =            824
(PID.TID 0000.0001) //            Max. X spins =              1
(PID.TID 0000.0001) //            Min. X spins =              1
(PID.TID 0000.0001) //          Total. X spins =            824
(PID.TID 0000.0001) //            Avg. X spins =       1.00E+00
(PID.TID 0000.0001) //         No. Y exchanges =            824
(PID.TID 0000.0001) //            Max. Y spins =              1
(PID.TID 0000.0001) //            Min. Y spins =              1
(PID.TID 0000.0001) //          Total. Y spins =            824
(PID.TID 0000.0001) //            Avg. Y spins =       1.00E+00
(PID.TID 0000.0001) // o Tile number: 000003
(PID.TID 0000.0001) //         No. X exchanges =            824
(PID.TID 0000.0001) //            Max. X spins =              1
(PID.TID 0000.0001) //            Min. X spins =              1
(PID.TID 0000.0001) //          Total. X spins =            824
(PID.TID 0000.0001) //            Avg. X spins =       1.00E+00
(PID.TID 0000.0001) //         No. Y exchanges =            824
(PID.TID 0000.0001) //            Max. Y spins =              1
(PID.TID 0000.0001) //            Min. Y spins =              1
(PID.TID 0000.0001) //          Total. Y spins =            824
(PID.TID 0000.0001) //            Avg. Y spins =       1.00E+00
(PID.TID 0000.0001) // o Tile number: 000004
(PID.TID 0000.0001) //         No. X exchanges =            824
(PID.TID 0000.0001) //            Max. X spins =              1
(PID.TID 0000.0001) //            Min. X spins =              1
(PID.TID 0000.0001) //          Total. X spins =            824
(PID.TID 0000.0001) //            Avg. X spins =       1.00E+00
(PID.TID 0000.0001) //         No. Y exchanges =            824
(PID.TID 0000.0001) //            Max. Y spins =              1
(PID.TID 0000.0001) //            Min. Y spins =              1
(PID.TID 0000.0001) //          Total. Y spins =            824
(PID.TID 0000.0001) //            Avg. Y spins =       1.00E+00
(PID.TID 0000.0001) // o Thread number: 000001
(PID.TID 0000.0001) //            No. barriers =              0
(PID.TID 0000.0001) //      Max. barrier spins =              0
(PID.TID 0000.0001) //      Min. barrier spins =     1000000000
(PID.TID 0000.0001) //     Total barrier spins =              0
(PID.TID 0000.0001) //      Avg. barrier spins =       0.00E+00
