(PID.TID 0000.0001) 
(PID.TID 0000.0001) // ======================================================
(PID.TID 0000.0001) //                      MITgcm UV
(PID.TID 0000.0001) //                      =========
(PID.TID 0000.0001) // ======================================================
(PID.TID 0000.0001) // execution environment starting up...
(PID.TID 0000.0001) // Run starting Wed Apr  1 14:19:48 1998
(PID.TID 0000.0001) // on melville.lcs.mit.edu
(PID.TID 0000.0001) // account cnh
(PID.TID 0000.0001) // MITgcm UV Release: $Name:  $
(PID.TID 0000.0001) 
(PID.TID 0000.0001) // =======================================================
(PID.TID 0000.0001) // Execution Environment parameter file "eedata"
(PID.TID 0000.0001) // =======================================================
(PID.TID 0000.0001) ># Example "eedata" file
(PID.TID 0000.0001) ># Lines beginning "#" are comments
(PID.TID 0000.0001) ># nTx - No. threads per process in X
(PID.TID 0000.0001) ># nTy - No. threads per process in Y
(PID.TID 0000.0001) > &EEPARMS
(PID.TID 0000.0001) > nTx=1,nTy=1
(PID.TID 0000.0001) > &
(PID.TID 0000.0001) ># Note: Some systems use & as the
(PID.TID 0000.0001) ># namelist terminator. Other systems
(PID.TID 0000.0001) ># use a / character (as shown here).
(PID.TID 0000.0001) 
(PID.TID 0000.0001) // =======================================================
(PID.TID 0000.0001) // Computational Grid Specification ( see files "SIZE.h" )
(PID.TID 0000.0001) //                                  ( and "eedata"       )
(PID.TID 0000.0001) // =======================================================
(PID.TID 0000.0001)      nPx =    1 ; /* No. processes in X */
(PID.TID 0000.0001)      nPy =    1 ; /* No. processes in Y */
(PID.TID 0000.0001)      nSx =    1 ; /* No. tiles in X per process */
(PID.TID 0000.0001)      nSy =    1 ; /* No. tiles in Y per process */
(PID.TID 0000.0001)      sNx =    2 ; /* Tile size in X */
(PID.TID 0000.0001)      sNy =   64 ; /* Tile size in Y */
(PID.TID 0000.0001)      OLx =    4 ; /* Tile overlap distance in X */
(PID.TID 0000.0001)      OLy =    4 ; /* Tile overlap distance in Y */
(PID.TID 0000.0001)      nTx =    1 ; /* No. threads in X per process */
(PID.TID 0000.0001)      nTy =    1 ; /* No. threads in Y per process */
(PID.TID 0000.0001)       Nr =    5 ; /* No. levels in the vertical   */
(PID.TID 0000.0001)       nX =    2 ; /* Total domain size in X ( = nPx*nSx*sNx ) */
(PID.TID 0000.0001)       nY =   64 ; /* Total domain size in Y ( = nPy*nSy*sNy ) */
(PID.TID 0000.0001)   nTiles =    1 ; /* Total no. tiles per process ( = nSx*nSy ) */
(PID.TID 0000.0001)   nProcs =    1 ; /* Total no. processes ( = nPx*nPy ) */
(PID.TID 0000.0001) nThreads =    1 ; /* Total no. threads per process ( = nTx*nTy ) */
(PID.TID 0000.0001) usingMPI =    F ; /* Flag used to control whether MPI is in use */
(PID.TID 0000.0001)                   /*  note: To execute a program with MPI calls */
(PID.TID 0000.0001)                   /*  it must be launched appropriately e.g     */
(PID.TID 0000.0001)                   /*  "mpirun -np 64 ......"                    */
(PID.TID 0000.0001) 
(PID.TID 0000.0001) // ======================================================
(PID.TID 0000.0001) // Mapping of tiles to threads
(PID.TID 0000.0001) // ======================================================
(PID.TID 0000.0001) // -o- Thread   1, tiles (   1:   1,   1:   1)
(PID.TID 0000.0001) 
(PID.TID 0000.0001) // ======================================================
(PID.TID 0000.0001) // Tile <-> Tile connectvity table
(PID.TID 0000.0001) // ======================================================
(PID.TID 0000.0001) // Tile number: 000001 (process no. = 000001)
(PID.TID 0000.0001) //        WEST: Tile = 000001, Process = 000001, Comm = put
(PID.TID 0000.0001) //                bi = 000001, bj = 000001
(PID.TID 0000.0001) //        EAST: Tile = 000001, Process = 000001, Comm = put
(PID.TID 0000.0001) //                bi = 000001, bj = 000001
(PID.TID 0000.0001) //       SOUTH: Tile = 000001, Process = 000001, Comm = put
(PID.TID 0000.0001) //                bi = 000001, bj = 000001
(PID.TID 0000.0001) //       NORTH: Tile = 000001, Process = 000001, Comm = put
(PID.TID 0000.0001) //                bi = 000001, bj = 000001
(PID.TID 0000.0001) 
(PID.TID 0000.0001) // =======================================================
(PID.TID 0000.0001) // Model parameter file "data"
(PID.TID 0000.0001) // =======================================================
(PID.TID 0000.0001) ># ====================
(PID.TID 0000.0001) ># | Model parameters |
(PID.TID 0000.0001) ># ====================
(PID.TID 0000.0001) >#
(PID.TID 0000.0001) ># Continuous equation parameters
(PID.TID 0000.0001) > &PARM01
(PID.TID 0000.0001) > tRef= 281.089, 289.321, 307.191, 331.377, 432.413,
(PID.TID 0000.0001) > tRef=5*0.,
(PID.TID 0000.0001) > sRef=5*0.,
(PID.TID 0000.0001) > viscAr=0.,
(PID.TID 0000.0001) > viscAh=0.,
(PID.TID 0000.0001) > viscA4=0.,
(PID.TID 0000.0001) > no_slip_sides=.FALSE.,
(PID.TID 0000.0001) > no_slip_bottom=.FALSE.,
(PID.TID 0000.0001) > diffKrT=0.,
(PID.TID 0000.0001) > diffKhT=0.,
(PID.TID 0000.0001) > diffK4T=0.,
(PID.TID 0000.0001) > diffKrS=0.,
(PID.TID 0000.0001) > diffKhS=0.,
(PID.TID 0000.0001) > diffK4S=0.,
(PID.TID 0000.0001) > buoyancyRelation='ATMOSPHERIC',
(PID.TID 0000.0001) > eosType='IDEALGAS',
(PID.TID 0000.0001) > gravity=9.81,
(PID.TID 0000.0001) > gBaro=9.81,
(PID.TID 0000.0001) > rhonil=1.0,
(PID.TID 0000.0001) > rhoConst=1.0,
(PID.TID 0000.0001) > rigidLid=.FALSE.,
(PID.TID 0000.0001) > implicitFreeSurface=.TRUE.,
(PID.TID 0000.0001) > nonHydrostatic=.FALSE.,
(PID.TID 0000.0001) > readBinaryPrec=64,
(PID.TID 0000.0001) > writeBinaryPrec=64,
(PID.TID 0000.0001) ># globalFiles=.TRUE.,
(PID.TID 0000.0001) > staggerTimestep=.TRUE.,
(PID.TID 0000.0001) > tr1Stepping=.TRUE.,
(PID.TID 0000.0001) > &
(PID.TID 0000.0001) >
(PID.TID 0000.0001) ># Elliptic solver parameters
(PID.TID 0000.0001) > &PARM02
(PID.TID 0000.0001) > cg2dMaxIters=600,
(PID.TID 0000.0001) > cg2dTargetResidual=1.E-13,
(PID.TID 0000.0001) > &
(PID.TID 0000.0001) >
(PID.TID 0000.0001) ># Time stepping parameters
(PID.TID 0000.0001) > &PARM03
(PID.TID 0000.0001) > niter0=0,
(PID.TID 0000.0001) > nTimeSteps=10,
(PID.TID 0000.0001) > abEps=0.1,
(PID.TID 0000.0001) > deltaT=1200.0,
(PID.TID 0000.0001) > cAdjFreq=0.,
(PID.TID 0000.0001) > pChkptFreq=0.0,
(PID.TID 0000.0001) > chkptFreq=0.0,
(PID.TID 0000.0001) > dumpFreq=2592000.0,
(PID.TID 0000.0001) > taveFreq=2592000.,
(PID.TID 0000.0001) > monitorFreq=1.,
(PID.TID 0000.0001) > &
(PID.TID 0000.0001) >
(PID.TID 0000.0001) ># Gridding parameters
(PID.TID 0000.0001) > &PARM04
(PID.TID 0000.0001) > usingCartesianGrid=.FALSE.,
(PID.TID 0000.0001) > usingSphericalPolarGrid=.TRUE.,
(PID.TID 0000.0001) > delX=1*2.8125,
(PID.TID 0000.0001) > delY=64*2.8125,
(PID.TID 0000.0001) > delR=1.E4, 2.5E4, 3.E4, 2.E4, 1.5E4,
(PID.TID 0000.0001) > Ro_SeaLevel=1.E5,
(PID.TID 0000.0001) > groundAtK1=.TRUE.,
(PID.TID 0000.0001) > phiMin=-90.,
(PID.TID 0000.0001) > &
(PID.TID 0000.0001) >
(PID.TID 0000.0001) ># Input datasets
(PID.TID 0000.0001) > &PARM05
(PID.TID 0000.0001) > &
(PID.TID 0000.0001) >
(PID.TID 0000.0001) >
(PID.TID 0000.0001) >
(PID.TID 0000.0001) >
(PID.TID 0000.0001) 
(PID.TID 0000.0001) S/R INI_PARMS ; read PARM01 : OK
(PID.TID 0000.0001) S/R INI_PARMS ; read PARM02 : OK
(PID.TID 0000.0001) S/R INI_PARMS ; read PARM03 : OK
(PID.TID 0000.0001) S/R INI_PARMS ; read PARM04 : OK
(PID.TID 0000.0001) S/R INI_PARMS ; read PARM05 : OK
(PID.TID 0000.0001) %MON XC_max                       =   6.1731162500000E+04
(PID.TID 0000.0001) %MON XC_min                       =   1.4062500000000E+00
(PID.TID 0000.0001) %MON XC_mean                      =   3.0866284375000E+04
(PID.TID 0000.0001) %MON XC_sd                        =   3.0864878125000E+04
(PID.TID 0000.0001) %MON XG_max                       =   2.8125000000000E+00
(PID.TID 0000.0001) %MON XG_min                       =   2.8125000000000E+00
(PID.TID 0000.0001) %MON XG_mean                      =   2.8125000000000E+00
(PID.TID 0000.0001) %MON XG_sd                        =   0.0000000000000E+00
(PID.TID 0000.0001) %MON DXC_max                      =   6.8608913357743E+09
(PID.TID 0000.0001) %MON DXC_min                      =   1.6842542873232E+08
(PID.TID 0000.0001) %MON DXC_mean                     =   4.3695336528951E+09
(PID.TID 0000.0001) %MON DXC_sd                       =   2.1112257528249E+09
(PID.TID 0000.0001) %MON DXF_max                      =   1.3721470079080E+10
(PID.TID 0000.0001) %MON DXF_min                      =   7.6737143816223E+03
(PID.TID 0000.0001) %MON DXF_mean                     =   4.3695336528951E+09
(PID.TID 0000.0001) %MON DXF_sd                       =   5.2919964848858E+09
(PID.TID 0000.0001) %MON DXG_max                      =   1.3725603974381E+10
(PID.TID 0000.0001) %MON DXG_min                      =   1.5342806404640E+04
(PID.TID 0000.0001) %MON DXG_mean                     =   4.4375544188470E+09
(PID.TID 0000.0001) %MON DXG_sd                       =   5.3060107456477E+09
(PID.TID 0000.0001) %MON DXV_max                      =   6.8629583305122E+09
(PID.TID 0000.0001) %MON DXV_min                      =   3.3674940428422E+08
(PID.TID 0000.0001) %MON DXV_mean                     =   4.4375544188470E+09
(PID.TID 0000.0001) %MON DXV_sd                       =   2.0571874952504E+09
(PID.TID 0000.0001) %MON YC_max                       =   8.8593750000000E+01
(PID.TID 0000.0001) %MON YC_min                       =  -8.8593750000000E+01
(PID.TID 0000.0001) %MON YC_mean                      =   0.0000000000000E+00
(PID.TID 0000.0001) %MON YC_sd                        =   5.1955180880375E+01
(PID.TID 0000.0001) %MON YG_max                       =   8.7187500000000E+01
(PID.TID 0000.0001) %MON YG_min                       =  -9.0000000000000E+01
(PID.TID 0000.0001) %MON YG_mean                      =  -1.4285714285714E+00
(PID.TID 0000.0001) %MON YG_sd                        =   5.2365595692639E+01
(PID.TID 0000.0001) %MON DYC_max                      =   3.1268664380261E+05
(PID.TID 0000.0001) %MON DYC_min                      =   3.1268664380261E+05
(PID.TID 0000.0001) %MON DYC_mean                     =   3.1268664380261E+05
(PID.TID 0000.0001) %MON DYC_sd                       =   4.6566128730774E-10
(PID.TID 0000.0001) %MON DYF_max                      =   3.1268664380261E+05
(PID.TID 0000.0001) %MON DYF_min                      =   3.1268664380261E+05
(PID.TID 0000.0001) %MON DYF_mean                     =   3.1268664380261E+05
(PID.TID 0000.0001) %MON DYF_sd                       =   4.6566128730774E-10
(PID.TID 0000.0001) %MON DYG_max                      =   3.1268664380261E+05
(PID.TID 0000.0001) %MON DYG_min                      =   3.1268664380261E+05
(PID.TID 0000.0001) %MON DYG_mean                     =   3.1268664380261E+05
(PID.TID 0000.0001) %MON DYG_sd                       =   4.6566128730774E-10
(PID.TID 0000.0001) %MON DYU_max                      =   3.1268664380261E+05
(PID.TID 0000.0001) %MON DYU_min                      =   3.1268664380261E+05
(PID.TID 0000.0001) %MON DYU_mean                     =   3.1268664380261E+05
(PID.TID 0000.0001) %MON DYU_sd                       =   4.6566128730774E-10
(PID.TID 0000.0001) %MON RA_max                       =   4.2900896769041E+15
(PID.TID 0000.0001) %MON RA_min                       =   2.3992270990191E+09
(PID.TID 0000.0001) %MON RA_mean                      =   1.3661576426676E+15
(PID.TID 0000.0001) %MON RA_sd                        =   1.6545704912941E+15
(PID.TID 0000.0001) %MON RAW_max                      =   2.1450937052904E+15
(PID.TID 0000.0001) %MON RAW_min                      =   5.2659094759410E+13
(PID.TID 0000.0001) %MON RAW_mean                     =   1.3661576426676E+15
(PID.TID 0000.0001) %MON RAW_sd                       =   6.6008581847342E+14
(PID.TID 0000.0001) %MON RAS_max                      =   4.2913821609784E+15
(PID.TID 0000.0001) %MON RAS_min                      =   4.7970089933465E+09
(PID.TID 0000.0001) %MON RAS_mean                     =   1.3874246923455E+15
(PID.TID 0000.0001) %MON RAS_sd                       =   1.6589521235156E+15
(PID.TID 0000.0001) %MON RAZ_max                      =   4.2913821609784E+15
(PID.TID 0000.0001) %MON RAZ_min                      =   4.7970089933465E+09
(PID.TID 0000.0001) %MON RAZ_mean                     =   1.3874246923455E+15
(PID.TID 0000.0001) %MON RAZ_sd                       =   1.6589521235156E+15
(PID.TID 0000.0001) // =======================================================
(PID.TID 0000.0001) // Field Model R_low (ini_masks_etc) at iteration          1
(PID.TID 0000.0001) // CMIN =          1.000000000000000E+32
(PID.TID 0000.0001) // CMAX =         -1.000000000000000E+32
(PID.TID 0000.0001) // CINT =          0.000000000000000E+00
(PID.TID 0000.0001) // SYMBOLS (CMIN->CMAX): -abcdefghijklmnopqrstuvwxyz+
(PID.TID 0000.0001) //                  0.0: .
(PID.TID 0000.0001) // RANGE I (Lo:Hi:Step):(  -3:   6:   1)
(PID.TID 0000.0001) // RANGE J (Lo:Hi:Step):(  68:  -3:  -1)
(PID.TID 0000.0001) // RANGE K (Lo:Hi:Step):(   1:   1:   1)
(PID.TID 0000.0001) // =======================================================
(PID.TID 0000.0001) K =   1
(PID.TID 0000.0001) //                I=6
(PID.TID 0000.0001) // |--J--|***012345|
(PID.TID 0000.0001) //     68 ..........
(PID.TID 0000.0001) //     67 ..........
(PID.TID 0000.0001) //     66 ..........
(PID.TID 0000.0001) //     65 ..........
(PID.TID 0000.0001) //     64 ..........
(PID.TID 0000.0001) //     63 ..........
(PID.TID 0000.0001) //     62 ..........
(PID.TID 0000.0001) //     61 ..........
(PID.TID 0000.0001) //     60 ..........
(PID.TID 0000.0001) //     59 ..........
(PID.TID 0000.0001) //     58 ..........
(PID.TID 0000.0001) //     57 ..........
(PID.TID 0000.0001) //     56 ..........
(PID.TID 0000.0001) //     55 ..........
(PID.TID 0000.0001) //     54 ..........
(PID.TID 0000.0001) //     53 ..........
(PID.TID 0000.0001) //     52 ..........
(PID.TID 0000.0001) //     51 ..........
(PID.TID 0000.0001) //     50 ..........
(PID.TID 0000.0001) //     49 ..........
(PID.TID 0000.0001) //     48 ..........
(PID.TID 0000.0001) //     47 ..........
(PID.TID 0000.0001) //     46 ..........
(PID.TID 0000.0001) //     45 ..........
(PID.TID 0000.0001) //     44 ..........
(PID.TID 0000.0001) //     43 ..........
(PID.TID 0000.0001) //     42 ..........
(PID.TID 0000.0001) //     41 ..........
(PID.TID 0000.0001) //     40 ..........
(PID.TID 0000.0001) //     39 ..........
(PID.TID 0000.0001) //     38 ..........
(PID.TID 0000.0001) //     37 ..........
(PID.TID 0000.0001) //     36 ..........
(PID.TID 0000.0001) //     35 ..........
(PID.TID 0000.0001) //     34 ..........
(PID.TID 0000.0001) //     33 ..........
(PID.TID 0000.0001) //     32 ..........
(PID.TID 0000.0001) //     31 ..........
(PID.TID 0000.0001) //     30 ..........
(PID.TID 0000.0001) //     29 ..........
(PID.TID 0000.0001) //     28 ..........
(PID.TID 0000.0001) //     27 ..........
(PID.TID 0000.0001) //     26 ..........
(PID.TID 0000.0001) //     25 ..........
(PID.TID 0000.0001) //     24 ..........
(PID.TID 0000.0001) //     23 ..........
(PID.TID 0000.0001) //     22 ..........
(PID.TID 0000.0001) //     21 ..........
(PID.TID 0000.0001) //     20 ..........
(PID.TID 0000.0001) //     19 ..........
(PID.TID 0000.0001) //     18 ..........
(PID.TID 0000.0001) //     17 ..........
(PID.TID 0000.0001) //     16 ..........
(PID.TID 0000.0001) //     15 ..........
(PID.TID 0000.0001) //     14 ..........
(PID.TID 0000.0001) //     13 ..........
(PID.TID 0000.0001) //     12 ..........
(PID.TID 0000.0001) //     11 ..........
(PID.TID 0000.0001) //     10 ..........
(PID.TID 0000.0001) //      9 ..........
(PID.TID 0000.0001) //      8 ..........
(PID.TID 0000.0001) //      7 ..........
(PID.TID 0000.0001) //      6 ..........
(PID.TID 0000.0001) //      5 ..........
(PID.TID 0000.0001) //      4 ..........
(PID.TID 0000.0001) //      3 ..........
(PID.TID 0000.0001) //      2 ..........
(PID.TID 0000.0001) //      1 ..........
(PID.TID 0000.0001) //      0 ..........
(PID.TID 0000.0001) //     -1 ..........
(PID.TID 0000.0001) //     -2 ..........
(PID.TID 0000.0001) //     -3 ..........
(PID.TID 0000.0001) // =======================================================
(PID.TID 0000.0001) // END OF FIELD                                          =
(PID.TID 0000.0001) // =======================================================
(PID.TID 0000.0001) 
(PID.TID 0000.0001) // =======================================================
(PID.TID 0000.0001) // Field Model Ro_surf (ini_masks_etc) at iteration          1
(PID.TID 0000.0001) // CMIN =          1.000000000000000E+05
(PID.TID 0000.0001) // CMAX =          1.000000000000000E+05
(PID.TID 0000.0001) // CINT =          0.000000000000000E+00
(PID.TID 0000.0001) // SYMBOLS (CMIN->CMAX): -abcdefghijklmnopqrstuvwxyz+
(PID.TID 0000.0001) //                  0.0: .
(PID.TID 0000.0001) // RANGE I (Lo:Hi:Step):(  -3:   6:   1)
(PID.TID 0000.0001) // RANGE J (Lo:Hi:Step):(  68:  -3:  -1)
(PID.TID 0000.0001) // RANGE K (Lo:Hi:Step):(   1:   1:   1)
(PID.TID 0000.0001) // =======================================================
(PID.TID 0000.0001) K =   1
(PID.TID 0000.0001) //                I=6
(PID.TID 0000.0001) // |--J--|***012345|
(PID.TID 0000.0001) //     68 ..........
(PID.TID 0000.0001) //     67 ..........
(PID.TID 0000.0001) //     66 ..........
(PID.TID 0000.0001) //     65 ..........
(PID.TID 0000.0001) //     64 ..------..
(PID.TID 0000.0001) //     63 ..------..
(PID.TID 0000.0001) //     62 ..------..
(PID.TID 0000.0001) //     61 ..------..
(PID.TID 0000.0001) //     60 ..------..
(PID.TID 0000.0001) //     59 ..------..
(PID.TID 0000.0001) //     58 ..------..
(PID.TID 0000.0001) //     57 ..------..
(PID.TID 0000.0001) //     56 ..------..
(PID.TID 0000.0001) //     55 ..------..
(PID.TID 0000.0001) //     54 ..------..
(PID.TID 0000.0001) //     53 ..------..
(PID.TID 0000.0001) //     52 ..------..
(PID.TID 0000.0001) //     51 ..------..
(PID.TID 0000.0001) //     50 ..------..
(PID.TID 0000.0001) //     49 ..------..
(PID.TID 0000.0001) //     48 ..------..
(PID.TID 0000.0001) //     47 ..------..
(PID.TID 0000.0001) //     46 ..------..
(PID.TID 0000.0001) //     45 ..------..
(PID.TID 0000.0001) //     44 ..------..
(PID.TID 0000.0001) //     43 ..------..
(PID.TID 0000.0001) //     42 ..------..
(PID.TID 0000.0001) //     41 ..------..
(PID.TID 0000.0001) //     40 ..------..
(PID.TID 0000.0001) //     39 ..------..
(PID.TID 0000.0001) //     38 ..------..
(PID.TID 0000.0001) //     37 ..------..
(PID.TID 0000.0001) //     36 ..------..
(PID.TID 0000.0001) //     35 ..------..
(PID.TID 0000.0001) //     34 ..------..
(PID.TID 0000.0001) //     33 ..------..
(PID.TID 0000.0001) //     32 ..------..
(PID.TID 0000.0001) //     31 ..------..
(PID.TID 0000.0001) //     30 ..------..
(PID.TID 0000.0001) //     29 ..------..
(PID.TID 0000.0001) //     28 ..------..
(PID.TID 0000.0001) //     27 ..------..
(PID.TID 0000.0001) //     26 ..------..
(PID.TID 0000.0001) //     25 ..------..
(PID.TID 0000.0001) //     24 ..------..
(PID.TID 0000.0001) //     23 ..------..
(PID.TID 0000.0001) //     22 ..------..
(PID.TID 0000.0001) //     21 ..------..
(PID.TID 0000.0001) //     20 ..------..
(PID.TID 0000.0001) //     19 ..------..
(PID.TID 0000.0001) //     18 ..------..
(PID.TID 0000.0001) //     17 ..------..
(PID.TID 0000.0001) //     16 ..------..
(PID.TID 0000.0001) //     15 ..------..
(PID.TID 0000.0001) //     14 ..------..
(PID.TID 0000.0001) //     13 ..------..
(PID.TID 0000.0001) //     12 ..------..
(PID.TID 0000.0001) //     11 ..------..
(PID.TID 0000.0001) //     10 ..------..
(PID.TID 0000.0001) //      9 ..------..
(PID.TID 0000.0001) //      8 ..------..
(PID.TID 0000.0001) //      7 ..------..
(PID.TID 0000.0001) //      6 ..------..
(PID.TID 0000.0001) //      5 ..------..
(PID.TID 0000.0001) //      4 ..------..
(PID.TID 0000.0001) //      3 ..------..
(PID.TID 0000.0001) //      2 ..------..
(PID.TID 0000.0001) //      1 ..------..
(PID.TID 0000.0001) //      0 ..........
(PID.TID 0000.0001) //     -1 ..........
(PID.TID 0000.0001) //     -2 ..........
(PID.TID 0000.0001) //     -3 ..........
(PID.TID 0000.0001) // =======================================================
(PID.TID 0000.0001) // END OF FIELD                                          =
(PID.TID 0000.0001) // =======================================================
(PID.TID 0000.0001) 
(PID.TID 0000.0001) // =======================================================
(PID.TID 0000.0001) // Field hFacC at iteration          1
(PID.TID 0000.0001) // CMIN =          1.000000000000000E+00
(PID.TID 0000.0001) // CMAX =          1.000000000000000E+00
(PID.TID 0000.0001) // CINT =          0.000000000000000E+00
(PID.TID 0000.0001) // SYMBOLS (CMIN->CMAX): -abcdefghijklmnopqrstuvwxyz+
(PID.TID 0000.0001) //                  0.0: .
(PID.TID 0000.0001) // RANGE I (Lo:Hi:Step):(  -3:   6:   1)
(PID.TID 0000.0001) // RANGE J (Lo:Hi:Step):(  68:  -3:  -1)
(PID.TID 0000.0001) // RANGE K (Lo:Hi:Step):(   1:   1:   1)
(PID.TID 0000.0001) // =======================================================
(PID.TID 0000.0001) K =   1
(PID.TID 0000.0001) //                I=6
(PID.TID 0000.0001) // |--J--|***012345|
(PID.TID 0000.0001) //     68 ..........
(PID.TID 0000.0001) //     67 ..........
(PID.TID 0000.0001) //     66 ..........
(PID.TID 0000.0001) //     65 ..........
(PID.TID 0000.0001) //     64 ..------..
(PID.TID 0000.0001) //     63 ..------..
(PID.TID 0000.0001) //     62 ..------..
(PID.TID 0000.0001) //     61 ..------..
(PID.TID 0000.0001) //     60 ..------..
(PID.TID 0000.0001) //     59 ..------..
(PID.TID 0000.0001) //     58 ..------..
(PID.TID 0000.0001) //     57 ..------..
(PID.TID 0000.0001) //     56 ..------..
(PID.TID 0000.0001) //     55 ..------..
(PID.TID 0000.0001) //     54 ..------..
(PID.TID 0000.0001) //     53 ..------..
(PID.TID 0000.0001) //     52 ..------..
(PID.TID 0000.0001) //     51 ..------..
(PID.TID 0000.0001) //     50 ..------..
(PID.TID 0000.0001) //     49 ..------..
(PID.TID 0000.0001) //     48 ..------..
(PID.TID 0000.0001) //     47 ..------..
(PID.TID 0000.0001) //     46 ..------..
(PID.TID 0000.0001) //     45 ..------..
(PID.TID 0000.0001) //     44 ..------..
(PID.TID 0000.0001) //     43 ..------..
(PID.TID 0000.0001) //     42 ..------..
(PID.TID 0000.0001) //     41 ..------..
(PID.TID 0000.0001) //     40 ..------..
(PID.TID 0000.0001) //     39 ..------..
(PID.TID 0000.0001) //     38 ..------..
(PID.TID 0000.0001) //     37 ..------..
(PID.TID 0000.0001) //     36 ..------..
(PID.TID 0000.0001) //     35 ..------..
(PID.TID 0000.0001) //     34 ..------..
(PID.TID 0000.0001) //     33 ..------..
(PID.TID 0000.0001) //     32 ..------..
(PID.TID 0000.0001) //     31 ..------..
(PID.TID 0000.0001) //     30 ..------..
(PID.TID 0000.0001) //     29 ..------..
(PID.TID 0000.0001) //     28 ..------..
(PID.TID 0000.0001) //     27 ..------..
(PID.TID 0000.0001) //     26 ..------..
(PID.TID 0000.0001) //     25 ..------..
(PID.TID 0000.0001) //     24 ..------..
(PID.TID 0000.0001) //     23 ..------..
(PID.TID 0000.0001) //     22 ..------..
(PID.TID 0000.0001) //     21 ..------..
(PID.TID 0000.0001) //     20 ..------..
(PID.TID 0000.0001) //     19 ..------..
(PID.TID 0000.0001) //     18 ..------..
(PID.TID 0000.0001) //     17 ..------..
(PID.TID 0000.0001) //     16 ..------..
(PID.TID 0000.0001) //     15 ..------..
(PID.TID 0000.0001) //     14 ..------..
(PID.TID 0000.0001) //     13 ..------..
(PID.TID 0000.0001) //     12 ..------..
(PID.TID 0000.0001) //     11 ..------..
(PID.TID 0000.0001) //     10 ..------..
(PID.TID 0000.0001) //      9 ..------..
(PID.TID 0000.0001) //      8 ..------..
(PID.TID 0000.0001) //      7 ..------..
(PID.TID 0000.0001) //      6 ..------..
(PID.TID 0000.0001) //      5 ..------..
(PID.TID 0000.0001) //      4 ..------..
(PID.TID 0000.0001) //      3 ..------..
(PID.TID 0000.0001) //      2 ..------..
(PID.TID 0000.0001) //      1 ..------..
(PID.TID 0000.0001) //      0 ..........
(PID.TID 0000.0001) //     -1 ..........
(PID.TID 0000.0001) //     -2 ..........
(PID.TID 0000.0001) //     -3 ..........
(PID.TID 0000.0001) // =======================================================
(PID.TID 0000.0001) // END OF FIELD                                          =
(PID.TID 0000.0001) // =======================================================
(PID.TID 0000.0001) 
(PID.TID 0000.0001) // =======================================================
(PID.TID 0000.0001) // Field hFacW at iteration          1
(PID.TID 0000.0001) // CMIN =          1.000000000000000E+00
(PID.TID 0000.0001) // CMAX =          1.000000000000000E+00
(PID.TID 0000.0001) // CINT =          0.000000000000000E+00
(PID.TID 0000.0001) // SYMBOLS (CMIN->CMAX): -abcdefghijklmnopqrstuvwxyz+
(PID.TID 0000.0001) //                  0.0: .
(PID.TID 0000.0001) // RANGE I (Lo:Hi:Step):(  -3:   6:   1)
(PID.TID 0000.0001) // RANGE J (Lo:Hi:Step):(  68:  -3:  -1)
(PID.TID 0000.0001) // RANGE K (Lo:Hi:Step):(   1:   1:   1)
(PID.TID 0000.0001) // =======================================================
(PID.TID 0000.0001) K =   1
(PID.TID 0000.0001) //                I=6
(PID.TID 0000.0001) // |--J--|***012345|
(PID.TID 0000.0001) //     68 ..------..
(PID.TID 0000.0001) //     67 ..------..
(PID.TID 0000.0001) //     66 ..------..
(PID.TID 0000.0001) //     65 ..------..
(PID.TID 0000.0001) //     64 ..------..
(PID.TID 0000.0001) //     63 ..------..
(PID.TID 0000.0001) //     62 ..------..
(PID.TID 0000.0001) //     61 ..------..
(PID.TID 0000.0001) //     60 ..------..
(PID.TID 0000.0001) //     59 ..------..
(PID.TID 0000.0001) //     58 ..------..
(PID.TID 0000.0001) //     57 ..------..
(PID.TID 0000.0001) //     56 ..------..
(PID.TID 0000.0001) //     55 ..------..
(PID.TID 0000.0001) //     54 ..------..
(PID.TID 0000.0001) //     53 ..------..
(PID.TID 0000.0001) //     52 ..------..
(PID.TID 0000.0001) //     51 ..------..
(PID.TID 0000.0001) //     50 ..------..
(PID.TID 0000.0001) //     49 ..------..
(PID.TID 0000.0001) //     48 ..------..
(PID.TID 0000.0001) //     47 ..------..
(PID.TID 0000.0001) //     46 ..------..
(PID.TID 0000.0001) //     45 ..------..
(PID.TID 0000.0001) //     44 ..------..
(PID.TID 0000.0001) //     43 ..------..
(PID.TID 0000.0001) //     42 ..------..
(PID.TID 0000.0001) //     41 ..------..
(PID.TID 0000.0001) //     40 ..------..
(PID.TID 0000.0001) //     39 ..------..
(PID.TID 0000.0001) //     38 ..------..
(PID.TID 0000.0001) //     37 ..------..
(PID.TID 0000.0001) //     36 ..------..
(PID.TID 0000.0001) //     35 ..------..
(PID.TID 0000.0001) //     34 ..------..
(PID.TID 0000.0001) //     33 ..------..
(PID.TID 0000.0001) //     32 ..------..
(PID.TID 0000.0001) //     31 ..------..
(PID.TID 0000.0001) //     30 ..------..
(PID.TID 0000.0001) //     29 ..------..
(PID.TID 0000.0001) //     28 ..------..
(PID.TID 0000.0001) //     27 ..------..
(PID.TID 0000.0001) //     26 ..------..
(PID.TID 0000.0001) //     25 ..------..
(PID.TID 0000.0001) //     24 ..------..
(PID.TID 0000.0001) //     23 ..------..
(PID.TID 0000.0001) //     22 ..------..
(PID.TID 0000.0001) //     21 ..------..
(PID.TID 0000.0001) //     20 ..------..
(PID.TID 0000.0001) //     19 ..------..
(PID.TID 0000.0001) //     18 ..------..
(PID.TID 0000.0001) //     17 ..------..
(PID.TID 0000.0001) //     16 ..------..
(PID.TID 0000.0001) //     15 ..------..
(PID.TID 0000.0001) //     14 ..------..
(PID.TID 0000.0001) //     13 ..------..
(PID.TID 0000.0001) //     12 ..------..
(PID.TID 0000.0001) //     11 ..------..
(PID.TID 0000.0001) //     10 ..------..
(PID.TID 0000.0001) //      9 ..------..
(PID.TID 0000.0001) //      8 ..------..
(PID.TID 0000.0001) //      7 ..------..
(PID.TID 0000.0001) //      6 ..------..
(PID.TID 0000.0001) //      5 ..------..
(PID.TID 0000.0001) //      4 ..------..
(PID.TID 0000.0001) //      3 ..------..
(PID.TID 0000.0001) //      2 ..------..
(PID.TID 0000.0001) //      1 ..------..
(PID.TID 0000.0001) //      0 ..------..
(PID.TID 0000.0001) //     -1 ..------..
(PID.TID 0000.0001) //     -2 ..------..
(PID.TID 0000.0001) //     -3 ..------..
(PID.TID 0000.0001) // =======================================================
(PID.TID 0000.0001) // END OF FIELD                                          =
(PID.TID 0000.0001) // =======================================================
(PID.TID 0000.0001) 
(PID.TID 0000.0001) // =======================================================
(PID.TID 0000.0001) // Field hFacS at iteration          1
(PID.TID 0000.0001) // CMIN =          1.000000000000000E+00
(PID.TID 0000.0001) // CMAX =          1.000000000000000E+00
(PID.TID 0000.0001) // CINT =          0.000000000000000E+00
(PID.TID 0000.0001) // SYMBOLS (CMIN->CMAX): -abcdefghijklmnopqrstuvwxyz+
(PID.TID 0000.0001) //                  0.0: .
(PID.TID 0000.0001) // RANGE I (Lo:Hi:Step):(  -3:   6:   1)
(PID.TID 0000.0001) // RANGE J (Lo:Hi:Step):(  68:  -3:  -1)
(PID.TID 0000.0001) // RANGE K (Lo:Hi:Step):(   1:   1:   1)
(PID.TID 0000.0001) // =======================================================
(PID.TID 0000.0001) K =   1
(PID.TID 0000.0001) //                I=6
(PID.TID 0000.0001) // |--J--|***012345|
(PID.TID 0000.0001) //     68 ..........
(PID.TID 0000.0001) //     67 ..........
(PID.TID 0000.0001) //     66 ..........
(PID.TID 0000.0001) //     65 ..........
(PID.TID 0000.0001) //     64 ..------..
(PID.TID 0000.0001) //     63 ..------..
(PID.TID 0000.0001) //     62 ..------..
(PID.TID 0000.0001) //     61 ..------..
(PID.TID 0000.0001) //     60 ..------..
(PID.TID 0000.0001) //     59 ..------..
(PID.TID 0000.0001) //     58 ..------..
(PID.TID 0000.0001) //     57 ..------..
(PID.TID 0000.0001) //     56 ..------..
(PID.TID 0000.0001) //     55 ..------..
(PID.TID 0000.0001) //     54 ..------..
(PID.TID 0000.0001) //     53 ..------..
(PID.TID 0000.0001) //     52 ..------..
(PID.TID 0000.0001) //     51 ..------..
(PID.TID 0000.0001) //     50 ..------..
(PID.TID 0000.0001) //     49 ..------..
(PID.TID 0000.0001) //     48 ..------..
(PID.TID 0000.0001) //     47 ..------..
(PID.TID 0000.0001) //     46 ..------..
(PID.TID 0000.0001) //     45 ..------..
(PID.TID 0000.0001) //     44 ..------..
(PID.TID 0000.0001) //     43 ..------..
(PID.TID 0000.0001) //     42 ..------..
(PID.TID 0000.0001) //     41 ..------..
(PID.TID 0000.0001) //     40 ..------..
(PID.TID 0000.0001) //     39 ..------..
(PID.TID 0000.0001) //     38 ..------..
(PID.TID 0000.0001) //     37 ..------..
(PID.TID 0000.0001) //     36 ..------..
(PID.TID 0000.0001) //     35 ..------..
(PID.TID 0000.0001) //     34 ..------..
(PID.TID 0000.0001) //     33 ..------..
(PID.TID 0000.0001) //     32 ..------..
(PID.TID 0000.0001) //     31 ..------..
(PID.TID 0000.0001) //     30 ..------..
(PID.TID 0000.0001) //     29 ..------..
(PID.TID 0000.0001) //     28 ..------..
(PID.TID 0000.0001) //     27 ..------..
(PID.TID 0000.0001) //     26 ..------..
(PID.TID 0000.0001) //     25 ..------..
(PID.TID 0000.0001) //     24 ..------..
(PID.TID 0000.0001) //     23 ..------..
(PID.TID 0000.0001) //     22 ..------..
(PID.TID 0000.0001) //     21 ..------..
(PID.TID 0000.0001) //     20 ..------..
(PID.TID 0000.0001) //     19 ..------..
(PID.TID 0000.0001) //     18 ..------..
(PID.TID 0000.0001) //     17 ..------..
(PID.TID 0000.0001) //     16 ..------..
(PID.TID 0000.0001) //     15 ..------..
(PID.TID 0000.0001) //     14 ..------..
(PID.TID 0000.0001) //     13 ..------..
(PID.TID 0000.0001) //     12 ..------..
(PID.TID 0000.0001) //     11 ..------..
(PID.TID 0000.0001) //     10 ..------..
(PID.TID 0000.0001) //      9 ..------..
(PID.TID 0000.0001) //      8 ..------..
(PID.TID 0000.0001) //      7 ..------..
(PID.TID 0000.0001) //      6 ..------..
(PID.TID 0000.0001) //      5 ..------..
(PID.TID 0000.0001) //      4 ..------..
(PID.TID 0000.0001) //      3 ..------..
(PID.TID 0000.0001) //      2 ..------..
(PID.TID 0000.0001) //      1 ..........
(PID.TID 0000.0001) //      0 ..........
(PID.TID 0000.0001) //     -1 ..........
(PID.TID 0000.0001) //     -2 ..........
(PID.TID 0000.0001) //     -3 ..........
(PID.TID 0000.0001) // =======================================================
(PID.TID 0000.0001) // END OF FIELD                                          =
(PID.TID 0000.0001) // =======================================================
(PID.TID 0000.0001) 
(PID.TID 0000.0001)  PACKAGES_BOOT: opening data.pkg
(PID.TID 0000.0001)  OPEN_COPY_DATA_FILE: opening file data.pkg
(PID.TID 0000.0001) // =======================================================
(PID.TID 0000.0001) // Parameter file "data.pkg"
(PID.TID 0000.0001) // =======================================================
(PID.TID 0000.0001) >#
(PID.TID 0000.0001) ># ********
(PID.TID 0000.0001) ># Packages
(PID.TID 0000.0001) ># ********
(PID.TID 0000.0001) > &PACKAGES
(PID.TID 0000.0001) > useSHAP_FILT = .TRUE.,
(PID.TID 0000.0001) > useGrdchk    = .TRUE.,
(PID.TID 0000.0001) > &
(PID.TID 0000.0001) 
(PID.TID 0000.0001)  PACKAGES_BOOT: finished reading data.pkg
(PID.TID 0000.0001)  SHAP_FILT_READPARMS: opening data.shap
(PID.TID 0000.0001)  OPEN_COPY_DATA_FILE: opening file data.shap
(PID.TID 0000.0001) // =======================================================
(PID.TID 0000.0001) // Parameter file "data.shap"
(PID.TID 0000.0001) // =======================================================
(PID.TID 0000.0001) ># Packages
(PID.TID 0000.0001) > &SHAP_PARM01
(PID.TID 0000.0001) > nShapT=4,
(PID.TID 0000.0001) > nShapUV=4,
(PID.TID 0000.0001) > Shap_funct=4,
(PID.TID 0000.0001) > &
(PID.TID 0000.0001) 
(PID.TID 0000.0001)  SHAP_FILT_READPARMS: finished reading data.shap
(PID.TID 0000.0001) Shap_funct =   /* select Shapiro filter function */
(PID.TID 0000.0001)                       4
(PID.TID 0000.0001)     ;
(PID.TID 0000.0001) nShapTr =   /* power of Shapiro filter for Tracers */
(PID.TID 0000.0001)                       4
(PID.TID 0000.0001)     ;
(PID.TID 0000.0001) nShapUV =   /* power of Shapiro filter for momentum */
(PID.TID 0000.0001)                       4
(PID.TID 0000.0001)     ;
(PID.TID 0000.0001) Shap_Trtau =   /* time scale of Shapiro filter (Tracer) */
(PID.TID 0000.0001)                 1.200000000000000E+03
(PID.TID 0000.0001)     ;
(PID.TID 0000.0001) Shap_TrLength =   /* Length scale of Shapiro filter (Tracer) */
(PID.TID 0000.0001)                 0.000000000000000E+00
(PID.TID 0000.0001)     ;
(PID.TID 0000.0001) Shap_uvtau =   /* time scale of Shapiro filter (Momentum) */
(PID.TID 0000.0001)                 1.200000000000000E+03
(PID.TID 0000.0001)     ;
(PID.TID 0000.0001) Shap_uvLength =   /* Length scale of Shapiro filter (Momentum) */
(PID.TID 0000.0001)                 0.000000000000000E+00
(PID.TID 0000.0001)     ;
(PID.TID 0000.0001) Shap_noSlip =  /* No-slip parameter (0=Free-slip ; 1=No-slip)*/
(PID.TID 0000.0001)                 0.000000000000000E+00
(PID.TID 0000.0001)     ;
(PID.TID 0000.0001) Shap_diagFreq =   /* Frequency^-1 for diagnostic output (s)*/
(PID.TID 0000.0001)                 0.000000000000000E+00
(PID.TID 0000.0001)     ;
(PID.TID 0000.0001) Processing namelist file data.cost ...
(PID.TID 0000.0001) 
(PID.TID 0000.0001) // =======================================================
(PID.TID 0000.0001) // Gradient check configuration  >>> START <<<
(PID.TID 0000.0001) // =======================================================
(PID.TID 0000.0001) 
(PID.TID 0000.0001)   eps:                              0.100E-01
(PID.TID 0000.0001)   First location:                           1
(PID.TID 0000.0001)   Last location:                            4
(PID.TID 0000.0001)   Increment:                                1
(PID.TID 0000.0001) 
(PID.TID 0000.0001) // =======================================================
(PID.TID 0000.0001) // Gradient check configuration  >>> END <<<
(PID.TID 0000.0001) // =======================================================
(PID.TID 0000.0001) 
(PID.TID 0000.0001) CTRL_CHECK: ctrl package
(PID.TID 0000.0001) COST_CHECK: cost package
(PID.TID 0000.0001) 
(PID.TID 0000.0001) // ===================================
(PID.TID 0000.0001) // GAD parameters :
(PID.TID 0000.0001) // ===================================
(PID.TID 0000.0001) tempAdvScheme =   /* Temp. advection scheme selector */
(PID.TID 0000.0001)                       2
(PID.TID 0000.0001)     ;
(PID.TID 0000.0001) tempMultiDimAdvec =   /* use Muti-Dim Advec method for Temp */
(PID.TID 0000.0001)                   F
(PID.TID 0000.0001)     ;
(PID.TID 0000.0001) tempAdamsBashforth =   /* use Adams-Bashforth time-stepping for Temp */
(PID.TID 0000.0001)                   T
(PID.TID 0000.0001)     ;
(PID.TID 0000.0001) saltAdvScheme =   /* Salt. advection scheme selector */
(PID.TID 0000.0001)                       2
(PID.TID 0000.0001)     ;
(PID.TID 0000.0001) saltMultiDimAdvec =   /* use Muti-Dim Advec method for Salt */
(PID.TID 0000.0001)                   F
(PID.TID 0000.0001)     ;
(PID.TID 0000.0001) saltAdamsBashforth =   /* use Adams-Bashforth time-stepping for Salt */
(PID.TID 0000.0001)                   T
(PID.TID 0000.0001)     ;
(PID.TID 0000.0001) // ===================================
 ph-wet 1: nvarlength =  2560
 ph-wet 2: surface wet C =  128
 ph-wet 3: surface wet W =  128
 ph-wet 4: surface wet S =  126
 ph-wet 4a:surface wet V =  0
 ph-wet 5: 3D wet points =  640
 ph-wet 6: no recs for i =  1 1
 ph-wet 6: no recs for i =  2 1
 ph-wet 6: no recs for i =  3 0
 ph-wet 6: no recs for i =  4 0
 ph-wet 6: no recs for i =  5 0
 ph-wet 6: no recs for i =  6 0
 ph-wet 6: no recs for i =  7 0
 ph-wet 6: no recs for i =  8 0
 ph-wet 6: no recs for i =  9 0
 ph-wet 6: no recs for i =  10 0
 ph-wet 6: no recs for i =  11 0
 ph-wet 6: no recs for i =  12 0
 ph-wet 6: no recs for i =  13 0
 ph-wet 6: no recs for i =  14 0
 ph-wet 6: no recs for i =  15 1
 ph-wet 6: no recs for i =  16 0
 ph-wet 6: no recs for i =  17 1
 ph-wet 6: no recs for i =  18 0
 ph-wet 6: no recs for i =  19 0
 ph-wet 6: no recs for i =  20 0
 ph-wet 6: no recs for i =  21 0
 ph-wet 6: no recs for i =  22 0
 ph-wet 6: no recs for i =  23 0
 ph-wet 6: no recs for i =  24 0
 ph-wet 6: no recs for i =  25 0
 ph-wet 6: no recs for i =  26 0
 ph-wet 6: no recs for i =  27 0
 ph-wet 6: no recs for i =  28 0
 ph-wet 6: no recs for i =  29 0
 ph-wet 6: no recs for i =  30 0
 ph-wet 7:  1280
 ph-wet 8:  1280
 ph-wet 13: global nvarlength vor k= 6 2560
 ph-wet 14a: global nWet... k= 1 128
 ph-wet 14b: global nWet... k= 1 126
 ph-wet 14c: global nWet... k= 1 128
 ph-wet 14d: global nWet... k= 1 0
 ph-wet 14a: global nWet... k= 2 128
 ph-wet 14b: global nWet... k= 2 126
 ph-wet 14c: global nWet... k= 2 128
 ph-wet 14d: global nWet... k= 2 0
 ph-wet 14a: global nWet... k= 3 128
 ph-wet 14b: global nWet... k= 3 126
 ph-wet 14c: global nWet... k= 3 128
 ph-wet 14d: global nWet... k= 3 0
 ph-wet 14a: global nWet... k= 4 128
 ph-wet 14b: global nWet... k= 4 126
 ph-wet 14c: global nWet... k= 4 128
 ph-wet 14d: global nWet... k= 4 0
 ph-wet 14a: global nWet... k= 5 128
 ph-wet 14b: global nWet... k= 5 126
 ph-wet 14c: global nWet... k= 5 128
 ph-wet 14d: global nWet... k= 5 0
 ctrl_init: no. of control variables:  4
 ctrl_init: control vector length:     2560
(PID.TID 0000.0001) %MON fCori_max                    =   1.4540029928789E-04
(PID.TID 0000.0001) %MON fCori_min                    =  -1.4540029928789E-04
(PID.TID 0000.0001) %MON fCori_mean                   =  -1.2705494208815E-21
(PID.TID 0000.0001) %MON fCori_sd                     =   1.0284451245737E-04
(PID.TID 0000.0001) %MON fCoriG_max                   =   1.4526891053949E-04
(PID.TID 0000.0001) %MON fCoriG_min                   =  -1.4544410433286E-04
(PID.TID 0000.0001) %MON fCoriG_mean                  =  -2.3086365767121E-06
(PID.TID 0000.0001) %MON fCoriG_sd                    =   1.0363181330709E-04
(PID.TID 0000.0001) %MON fCoriCos_max                 =   1.4540029928789E-04
(PID.TID 0000.0001) %MON fCoriCos_min                 =   3.5693770017430E-06
(PID.TID 0000.0001) %MON fCoriCos_mean                =   9.2601889431869E-05
(PID.TID 0000.0001) %MON fCoriCos_sd                  =   4.4742416298653E-05
(PID.TID 0000.0001) // CG2D normalisation factor =          0.2278126663032464164969763E-09
(PID.TID 0000.0001) 
(PID.TID 0000.0001) CONFIG_CHECK: OK
(PID.TID 0000.0001) // =======================================================
(PID.TID 0000.0001) // Model configuration
(PID.TID 0000.0001) // =======================================================
(PID.TID 0000.0001) //
(PID.TID 0000.0001) // "Physical" paramters ( PARM01 in namelist )
(PID.TID 0000.0001) //
(PID.TID 0000.0001) buoyancyRelation = ATMOSPHERIC
(PID.TID 0000.0001) tRef =   /* Reference temperature profile ( oC or oK ) */
(PID.TID 0000.0001)     5 @  0.000000000000000E+00              /* K =  1:  5 */
(PID.TID 0000.0001)     ;
(PID.TID 0000.0001) sRef =   /* Reference salinity profile ( ppt ) */
(PID.TID 0000.0001)     5 @  0.000000000000000E+00              /* K =  1:  5 */
(PID.TID 0000.0001)     ;
(PID.TID 0000.0001) viscAh =   /* Lateral eddy viscosity ( m^2/s ) */
(PID.TID 0000.0001)                 0.000000000000000E+00
(PID.TID 0000.0001)     ;
(PID.TID 0000.0001) viscAh =   /* Lateral biharmonic viscosity ( m^4/s ) */
(PID.TID 0000.0001)                 0.000000000000000E+00
(PID.TID 0000.0001)     ;
(PID.TID 0000.0001) no_slip_sides =  /* Viscous BCs: No-slip sides */
(PID.TID 0000.0001)                   F
(PID.TID 0000.0001)     ;
(PID.TID 0000.0001) viscAr =   /* Vertical eddy viscosity ( units of r^2/s ) */
(PID.TID 0000.0001)                 0.000000000000000E+00
(PID.TID 0000.0001)     ;
(PID.TID 0000.0001) diffKhT =   /* Laplacian diffusion of heat laterally ( m^2/s ) */
(PID.TID 0000.0001)                 0.000000000000000E+00
(PID.TID 0000.0001)     ;
(PID.TID 0000.0001) diffK4T =   /* Bihaarmonic diffusion of heat laterally ( m^4/s ) */
(PID.TID 0000.0001)                 0.000000000000000E+00
(PID.TID 0000.0001)     ;
(PID.TID 0000.0001) diffKrT =   /* Laplacian diffusion of heat vertically ( m^2/s ) */
(PID.TID 0000.0001)                 0.000000000000000E+00
(PID.TID 0000.0001)     ;
(PID.TID 0000.0001) diffKhS =   /* Laplacian diffusion of salt laterally ( m^2/s ) */
(PID.TID 0000.0001)                 0.000000000000000E+00
(PID.TID 0000.0001)     ;
(PID.TID 0000.0001) diffK4S =   /* Bihaarmonic diffusion of salt laterally ( m^4/s ) */
(PID.TID 0000.0001)                 0.000000000000000E+00
(PID.TID 0000.0001)     ;
(PID.TID 0000.0001) diffKrS =   /* Laplacian diffusion of salt vertically ( m^2/s ) */
(PID.TID 0000.0001)                 0.000000000000000E+00
(PID.TID 0000.0001)     ;
(PID.TID 0000.0001)  Equation of State : eosType = IDEALG
(PID.TID 0000.0001) tAlpha =   /* Linear EOS thermal expansion coefficient ( 1/degree ) */
(PID.TID 0000.0001)                 1.234567000000000E+05
(PID.TID 0000.0001)     ;
(PID.TID 0000.0001) sBeta =   /* Linear EOS haline contraction coefficient ( 1/ppt ) */
(PID.TID 0000.0001)                 1.234567000000000E+05
(PID.TID 0000.0001)     ;
(PID.TID 0000.0001) atm_Rd =  /* gas constant for dry air ( J/kg/K ) */
(PID.TID 0000.0001)                 2.868571428571428E+02
(PID.TID 0000.0001)     ;
(PID.TID 0000.0001) atm_Cp =  /* specific heat (Cp) of dry air ( J/kg/K ) */
(PID.TID 0000.0001)                 1.004000000000000E+03
(PID.TID 0000.0001)     ;
(PID.TID 0000.0001) atm_kappa =  /* kappa (=Rd/Cp ) of dry air */
(PID.TID 0000.0001)                 2.857142857142857E-01
(PID.TID 0000.0001)     ;
(PID.TID 0000.0001) atm_Rq = /* water vap. specific vol. anomaly relative to dry air */
(PID.TID 0000.0001)                 0.000000000000000E+00
(PID.TID 0000.0001)     ;
(PID.TID 0000.0001) atm_Po =  /* standard reference pressure ( Pa ) */
(PID.TID 0000.0001)                 1.000000000000000E+05
(PID.TID 0000.0001)     ;
(PID.TID 0000.0001) integr_GeoPot =  /* select how the geopotential is integrated */
(PID.TID 0000.0001)                       2
(PID.TID 0000.0001)     ;
(PID.TID 0000.0001) selectFindRoSurf=  /* select how Surf.Ref. pressure is defined */
(PID.TID 0000.0001)                       0
(PID.TID 0000.0001)     ;
(PID.TID 0000.0001) rhonil =   /* Reference density ( kg/m^3 ) */
(PID.TID 0000.0001)                 1.000000000000000E+00
(PID.TID 0000.0001)     ;
(PID.TID 0000.0001) rhoConst =   /* Reference density ( kg/m^3 ) */
(PID.TID 0000.0001)                 1.000000000000000E+00
(PID.TID 0000.0001)     ;
(PID.TID 0000.0001) rhoConstFresh =   /* Reference density ( kg/m^3 ) */
(PID.TID 0000.0001)                 9.998000000000000E+02
(PID.TID 0000.0001)     ;
(PID.TID 0000.0001) gravity =   /* Gravitational acceleration ( m/s^2 ) */
(PID.TID 0000.0001)                 9.810000000000000E+00
(PID.TID 0000.0001)     ;
(PID.TID 0000.0001) gBaro =   /* Barotropic gravity ( m/s^2 ) */
(PID.TID 0000.0001)                 9.810000000000000E+00
(PID.TID 0000.0001)     ;
(PID.TID 0000.0001) rotationPeriod =   /* Rotation Period ( s ) */
(PID.TID 0000.0001)                 8.640000000000000E+04
(PID.TID 0000.0001)     ;
(PID.TID 0000.0001) omega =   /* Angular velocity ( rad/s ) */
(PID.TID 0000.0001)                 7.272205216643040E-05
(PID.TID 0000.0001)     ;
(PID.TID 0000.0001) f0 =   /* Reference coriolis parameter ( 1/s ) */
(PID.TID 0000.0001)                 1.000000000000000E-04
(PID.TID 0000.0001)     ;
(PID.TID 0000.0001) beta =   /* Beta ( 1/(m.s) ) */
(PID.TID 0000.0001)                 9.999999999999999E-12
(PID.TID 0000.0001)     ;
(PID.TID 0000.0001) freeSurfFac =   /* Implicit free surface factor */
(PID.TID 0000.0001)                 1.000000000000000E+00
(PID.TID 0000.0001)     ;
(PID.TID 0000.0001) implicitFreeSurface =   /* Implicit free surface on/off flag */
(PID.TID 0000.0001)                   T
(PID.TID 0000.0001)     ;
(PID.TID 0000.0001) rigidLid =   /* Rigid lid on/off flag */
(PID.TID 0000.0001)                   F
(PID.TID 0000.0001)     ;
(PID.TID 0000.0001) implicSurfPress =   /* Surface Pressure implicit factor (0-1)*/
(PID.TID 0000.0001)                 1.000000000000000E+00
(PID.TID 0000.0001)     ;
(PID.TID 0000.0001) implicDiv2Dflow =   /* Barot. Flow Div. implicit factor (0-1)*/
(PID.TID 0000.0001)                 1.000000000000000E+00
(PID.TID 0000.0001)     ;
(PID.TID 0000.0001) exactConserv =   /* Exact Volume Conservation on/off flag*/
(PID.TID 0000.0001)                   F
(PID.TID 0000.0001)     ;
(PID.TID 0000.0001) uniformLin_PhiSurf =   /* use uniform Bo_surf on/off flag*/
(PID.TID 0000.0001)                   T
(PID.TID 0000.0001)     ;
(PID.TID 0000.0001) nonlinFreeSurf =   /* Non-linear Free Surf. options (-1,0,1,2,3)*/
(PID.TID 0000.0001)                       0
(PID.TID 0000.0001)     ;
(PID.TID 0000.0001)      -1,0= Off ; 1,2,3= On, 2=+rescale gU,gV, 3=+update cg2d solv.
(PID.TID 0000.0001) hFacInf =   /* lower threshold for hFac (nonlinFreeSurf only)*/
(PID.TID 0000.0001)                 2.000000000000000E-01
(PID.TID 0000.0001)     ;
(PID.TID 0000.0001) hFacSup =   /* upper threshold for hFac (nonlinFreeSurf only)*/
(PID.TID 0000.0001)                 2.000000000000000E+00
(PID.TID 0000.0001)     ;
(PID.TID 0000.0001) select_rStar =   /* r* Coordinate options (not yet implemented)*/
(PID.TID 0000.0001)                       0
(PID.TID 0000.0001)     ;
(PID.TID 0000.0001) useRealFreshWaterFlux =   /* Real Fresh Water Flux on/off flag*/
(PID.TID 0000.0001)                   F
(PID.TID 0000.0001)     ;
(PID.TID 0000.0001) convertFW2Salt = /* convert F.W. Flux to Salt Flux (-1=use local S)(ppt)*/
(PID.TID 0000.0001)                 3.500000000000000E+01
(PID.TID 0000.0001)     ;
(PID.TID 0000.0001) multiDimAdvection =   /* enable/disable Multi-Dim Advection */
(PID.TID 0000.0001)                   T
(PID.TID 0000.0001)     ;
(PID.TID 0000.0001) staggerTimeStep =   /* Stagger time stepping on/off flag */
(PID.TID 0000.0001)                   T
(PID.TID 0000.0001)     ;
(PID.TID 0000.0001) momStepping =  /* Momentum equation on/off flag */
(PID.TID 0000.0001)                   T
(PID.TID 0000.0001)     ;
(PID.TID 0000.0001) momAdvection =  /* Momentum advection on/off flag */
(PID.TID 0000.0001)                   T
(PID.TID 0000.0001)     ;
(PID.TID 0000.0001) momViscosity =  /* Momentum viscosity on/off flag */
(PID.TID 0000.0001)                   T
(PID.TID 0000.0001)     ;
(PID.TID 0000.0001) useCoriolis =  /* Coriolis on/off flag */
(PID.TID 0000.0001)                   T
(PID.TID 0000.0001)     ;
(PID.TID 0000.0001) momForcing =  /* Momentum forcing on/off flag */
(PID.TID 0000.0001)                   T
(PID.TID 0000.0001)     ;
(PID.TID 0000.0001) momPressureForcing =  /* Momentum pressure term on/off flag */
(PID.TID 0000.0001)                   T
(PID.TID 0000.0001)     ;
(PID.TID 0000.0001) tempStepping =  /* Temperature equation on/off flag */
(PID.TID 0000.0001)                   T
(PID.TID 0000.0001)     ;
(PID.TID 0000.0001) tempAdvection=  /* Temperature advection on/off flag */
(PID.TID 0000.0001)                   T
(PID.TID 0000.0001)     ;
(PID.TID 0000.0001) tempForcing  =  /* Temperature forcing on/off flag */
(PID.TID 0000.0001)                   T
(PID.TID 0000.0001)     ;
(PID.TID 0000.0001) saltStepping =  /* Salinity equation on/off flag */
(PID.TID 0000.0001)                   T
(PID.TID 0000.0001)     ;
(PID.TID 0000.0001) saltAdvection=  /* Salinity advection on/off flag */
(PID.TID 0000.0001)                   T
(PID.TID 0000.0001)     ;
(PID.TID 0000.0001) saltForcing  =  /* Salinity forcing on/off flag */
(PID.TID 0000.0001)                   T
(PID.TID 0000.0001)     ;
(PID.TID 0000.0001) nonHydrostatic =  /* Non-Hydrostatic on/off flag */
(PID.TID 0000.0001)                   F
(PID.TID 0000.0001)     ;
(PID.TID 0000.0001) useCDscheme =  /* CD scheme on/off flag */
(PID.TID 0000.0001)                   F
(PID.TID 0000.0001)     ;
(PID.TID 0000.0001) useJamartWetPoints= /* Coriolis WetPoints method flag */
(PID.TID 0000.0001)                   F
(PID.TID 0000.0001)     ;
(PID.TID 0000.0001) //
(PID.TID 0000.0001) // Elliptic solver(s) paramters ( PARM02 in namelist )
(PID.TID 0000.0001) //
(PID.TID 0000.0001) cg2dMaxIters =   /* Upper limit on 2d con. grad iterations  */
(PID.TID 0000.0001)                     600
(PID.TID 0000.0001)     ;
(PID.TID 0000.0001) cg2dChkResFreq =   /* 2d con. grad convergence test frequency */
(PID.TID 0000.0001)                       1
(PID.TID 0000.0001)     ;
(PID.TID 0000.0001) cg2dTargetResidual =   /* 2d con. grad target residual  */
(PID.TID 0000.0001)                 1.000000000000000E-13
(PID.TID 0000.0001)     ;
(PID.TID 0000.0001) //
(PID.TID 0000.0001) // Time stepping paramters ( PARM03 in namelist )
(PID.TID 0000.0001) //
(PID.TID 0000.0001) nIter0 =   /* Base timestep number  */
(PID.TID 0000.0001)                       0
(PID.TID 0000.0001)     ;
(PID.TID 0000.0001) nTimeSteps =   /* Number of timesteps */
(PID.TID 0000.0001)                      10
(PID.TID 0000.0001)     ;
(PID.TID 0000.0001) deltatTmom =   /* Momentum equation timestep ( s ) */
(PID.TID 0000.0001)                 1.200000000000000E+03
(PID.TID 0000.0001)     ;
(PID.TID 0000.0001) deltaTfreesurf =   /* FreeSurface equation timestep ( s ) */
(PID.TID 0000.0001)                 1.200000000000000E+03
(PID.TID 0000.0001)     ;
(PID.TID 0000.0001) deltatTtracer =   /* Tracer equation timestep ( s ) */
(PID.TID 0000.0001)                 1.200000000000000E+03
(PID.TID 0000.0001)     ;
(PID.TID 0000.0001) deltatTClock  =   /* Model clock timestep ( s ) */
(PID.TID 0000.0001)                 1.200000000000000E+03
(PID.TID 0000.0001)     ;
(PID.TID 0000.0001) cAdjFreq =   /* Convective adjustment interval ( s ) */
(PID.TID 0000.0001)                 0.000000000000000E+00
(PID.TID 0000.0001)     ;
(PID.TID 0000.0001) forcing_In_AB =   /* put T,S Forcing in Adams-Bash. stepping */
(PID.TID 0000.0001)                   T
(PID.TID 0000.0001)     ;
(PID.TID 0000.0001) abeps =   /* Adams-Bashforth stabilizing weight */
(PID.TID 0000.0001)                 1.000000000000000E-01
(PID.TID 0000.0001)     ;
(PID.TID 0000.0001) startTime =   /* Run start time ( s ). */
(PID.TID 0000.0001)                 0.000000000000000E+00
(PID.TID 0000.0001)     ;
(PID.TID 0000.0001) endTime =   /* Integration ending time ( s ). */
(PID.TID 0000.0001)                 1.200000000000000E+04
(PID.TID 0000.0001)     ;
(PID.TID 0000.0001) pChkPtFreq =   /* Permanent restart/checkpoint file interval ( s ). */
(PID.TID 0000.0001)                 0.000000000000000E+00
(PID.TID 0000.0001)     ;
(PID.TID 0000.0001) chkPtFreq =   /* Rolling restart/checkpoint file interval ( s ). */
(PID.TID 0000.0001)                 0.000000000000000E+00
(PID.TID 0000.0001)     ;
(PID.TID 0000.0001) dumpFreq =   /* Model state write out interval ( s ). */
(PID.TID 0000.0001)                 2.592000000000000E+06
(PID.TID 0000.0001)     ;
(PID.TID 0000.0001) externForcingPeriod =   /* forcing period (s) */
(PID.TID 0000.0001)                 0.000000000000000E+00
(PID.TID 0000.0001)     ;
(PID.TID 0000.0001) externForcingCycle =   /* period of the cyle (s). */
(PID.TID 0000.0001)                 0.000000000000000E+00
(PID.TID 0000.0001)     ;
(PID.TID 0000.0001) tauThetaClimRelax =   /* relaxation time scale (s) */
(PID.TID 0000.0001)                 0.000000000000000E+00
(PID.TID 0000.0001)     ;
(PID.TID 0000.0001) tauSaltClimRelax =   /* relaxation time scale (s) */
(PID.TID 0000.0001)                 0.000000000000000E+00
(PID.TID 0000.0001)     ;
(PID.TID 0000.0001) latBandClimRelax =   /* max. Lat. where relaxation */
(PID.TID 0000.0001)                 1.800000000000000E+02
(PID.TID 0000.0001)     ;
(PID.TID 0000.0001) //
(PID.TID 0000.0001) // Gridding paramters ( PARM04 in namelist )
(PID.TID 0000.0001) //
(PID.TID 0000.0001) usingCartesianGrid =   /* Cartesian coordinates flag ( True / False ) */
(PID.TID 0000.0001)                   F
(PID.TID 0000.0001)     ;
(PID.TID 0000.0001) usingSphericalPolarGrid =   /* Spherical coordinates flag ( True / False ) */
(PID.TID 0000.0001)                   T
(PID.TID 0000.0001)     ;
(PID.TID 0000.0001) groundAtK1 =   /* Lower Boundary (ground) at the surface(k=1) ( T / F ) */
(PID.TID 0000.0001)                   T
(PID.TID 0000.0001)     ;
(PID.TID 0000.0001) Ro_SeaLevel =   /* r(1) ( units of r ) */
(PID.TID 0000.0001)                 1.000000000000000E+05
(PID.TID 0000.0001)     ;
(PID.TID 0000.0001) rkFac =   /* minus Vertical index orientation  */
(PID.TID 0000.0001)                 1.000000000000000E+00
(PID.TID 0000.0001)     ;
(PID.TID 0000.0001) horiVertRatio =   /* Ratio on units : Horiz - Vertical */
(PID.TID 0000.0001)                 9.810000000000000E+00
(PID.TID 0000.0001)     ;
(PID.TID 0000.0001) drC =   /* C spacing ( units of r ) */
(PID.TID 0000.0001)                 5.000000000000000E+03,      /* K =  1 */
(PID.TID 0000.0001)                 1.750000000000000E+04,      /* K =  2 */
(PID.TID 0000.0001)                 2.750000000000000E+04,      /* K =  3 */
(PID.TID 0000.0001)                 2.500000000000000E+04,      /* K =  4 */
(PID.TID 0000.0001)                 1.750000000000000E+04       /* K =  5 */
(PID.TID 0000.0001)     ;
(PID.TID 0000.0001) drF =   /* W spacing ( units of r ) */
(PID.TID 0000.0001)                 1.000000000000000E+04,      /* K =  1 */
(PID.TID 0000.0001)                 2.500000000000000E+04,      /* K =  2 */
(PID.TID 0000.0001)                 3.000000000000000E+04,      /* K =  3 */
(PID.TID 0000.0001)                 2.000000000000000E+04,      /* K =  4 */
(PID.TID 0000.0001)                 1.500000000000000E+04       /* K =  5 */
(PID.TID 0000.0001)     ;
(PID.TID 0000.0001) delX =   /* U spacing ( m - cartesian, degrees - spherical ) */
(PID.TID 0000.0001)                 2.812500000000000E+00,      /* I =  1 */
(PID.TID 0000.0001)                 1.234567000000000E+05       /* I =  2 */
(PID.TID 0000.0001)     ;
(PID.TID 0000.0001) delY =   /* V spacing ( m - cartesian, degrees - spherical ) */
(PID.TID 0000.0001)    64 @  2.812500000000000E+00              /* J =  1: 64 */
(PID.TID 0000.0001)     ;
(PID.TID 0000.0001) phiMin =    /* South edge (ignored - cartesian, degrees - spherical ) */
(PID.TID 0000.0001)                -9.000000000000000E+01
(PID.TID 0000.0001)     ;
(PID.TID 0000.0001) thetaMin =    /* West edge ( ignored - cartesian, degrees - spherical ) */
(PID.TID 0000.0001)                 0.000000000000000E+00
(PID.TID 0000.0001)     ;
(PID.TID 0000.0001) rSphere =    /* Radius ( ignored - cartesian, m - spherical ) */
(PID.TID 0000.0001)                 6.370000000000000E+06
(PID.TID 0000.0001)     ;
(PID.TID 0000.0001) xcoord =   /* P-point X coord ( m - cartesian, degrees - spherical ) */
(PID.TID 0000.0001)                 1.406250000000000E+00,      /* I =  1 */
(PID.TID 0000.0001)                 6.173116250000000E+04       /* I =  2 */
(PID.TID 0000.0001)     ;
(PID.TID 0000.0001) ycoord =   /* P-point Y coord ( m - cartesian, degrees - spherical ) */
(PID.TID 0000.0001)                -8.859375000000000E+01,      /* J =  1 */
(PID.TID 0000.0001)                -8.578125000000000E+01,      /* J =  2 */
(PID.TID 0000.0001)                -8.296875000000000E+01,      /* J =  3 */
(PID.TID 0000.0001)                -8.015625000000000E+01,      /* J =  4 */
(PID.TID 0000.0001)                -7.734375000000000E+01,      /* J =  5 */
(PID.TID 0000.0001)                -7.453125000000000E+01,      /* J =  6 */
(PID.TID 0000.0001)                -7.171875000000000E+01,      /* J =  7 */
(PID.TID 0000.0001)                -6.890625000000000E+01,      /* J =  8 */
(PID.TID 0000.0001)                -6.609375000000000E+01,      /* J =  9 */
(PID.TID 0000.0001)                -6.328125000000000E+01,      /* J = 10 */
(PID.TID 0000.0001)                -6.046875000000000E+01,      /* J = 11 */
(PID.TID 0000.0001)                -5.765625000000000E+01,      /* J = 12 */
(PID.TID 0000.0001)                -5.484375000000000E+01,      /* J = 13 */
(PID.TID 0000.0001)                -5.203125000000000E+01,      /* J = 14 */
(PID.TID 0000.0001)                -4.921875000000000E+01,      /* J = 15 */
(PID.TID 0000.0001)                -4.640625000000000E+01,      /* J = 16 */
(PID.TID 0000.0001)                -4.359375000000000E+01,      /* J = 17 */
(PID.TID 0000.0001)                -4.078125000000000E+01,      /* J = 18 */
(PID.TID 0000.0001)                -3.796875000000000E+01,      /* J = 19 */
(PID.TID 0000.0001)                -3.515625000000000E+01,      /* J = 20 */
(PID.TID 0000.0001)                -3.234375000000000E+01,      /* J = 21 */
(PID.TID 0000.0001)                -2.953125000000000E+01,      /* J = 22 */
(PID.TID 0000.0001)                -2.671875000000000E+01,      /* J = 23 */
(PID.TID 0000.0001)                -2.390625000000000E+01,      /* J = 24 */
(PID.TID 0000.0001)                -2.109375000000000E+01,      /* J = 25 */
(PID.TID 0000.0001)                -1.828125000000000E+01,      /* J = 26 */
(PID.TID 0000.0001)                -1.546875000000000E+01,      /* J = 27 */
(PID.TID 0000.0001)                -1.265625000000000E+01,      /* J = 28 */
(PID.TID 0000.0001)                -9.843750000000000E+00,      /* J = 29 */
(PID.TID 0000.0001)                -7.031250000000000E+00,      /* J = 30 */
(PID.TID 0000.0001)                -4.218750000000000E+00,      /* J = 31 */
(PID.TID 0000.0001)                -1.406250000000000E+00,      /* J = 32 */
(PID.TID 0000.0001)                 1.406250000000000E+00,      /* J = 33 */
(PID.TID 0000.0001)                 4.218750000000000E+00,      /* J = 34 */
(PID.TID 0000.0001)                 7.031250000000000E+00,      /* J = 35 */
(PID.TID 0000.0001)                 9.843750000000000E+00,      /* J = 36 */
(PID.TID 0000.0001)                 1.265625000000000E+01,      /* J = 37 */
(PID.TID 0000.0001)                 1.546875000000000E+01,      /* J = 38 */
(PID.TID 0000.0001)                 1.828125000000000E+01,      /* J = 39 */
(PID.TID 0000.0001)                 2.109375000000000E+01,      /* J = 40 */
(PID.TID 0000.0001)                 2.390625000000000E+01,      /* J = 41 */
(PID.TID 0000.0001)                 2.671875000000000E+01,      /* J = 42 */
(PID.TID 0000.0001)                 2.953125000000000E+01,      /* J = 43 */
(PID.TID 0000.0001)                 3.234375000000000E+01,      /* J = 44 */
(PID.TID 0000.0001)                 3.515625000000000E+01,      /* J = 45 */
(PID.TID 0000.0001)                 3.796875000000000E+01,      /* J = 46 */
(PID.TID 0000.0001)                 4.078125000000000E+01,      /* J = 47 */
(PID.TID 0000.0001)                 4.359375000000000E+01,      /* J = 48 */
(PID.TID 0000.0001)                 4.640625000000000E+01,      /* J = 49 */
(PID.TID 0000.0001)                 4.921875000000000E+01,      /* J = 50 */
(PID.TID 0000.0001)                 5.203125000000000E+01,      /* J = 51 */
(PID.TID 0000.0001)                 5.484375000000000E+01,      /* J = 52 */
(PID.TID 0000.0001)                 5.765625000000000E+01,      /* J = 53 */
(PID.TID 0000.0001)                 6.046875000000000E+01,      /* J = 54 */
(PID.TID 0000.0001)                 6.328125000000000E+01,      /* J = 55 */
(PID.TID 0000.0001)                 6.609375000000000E+01,      /* J = 56 */
(PID.TID 0000.0001)                 6.890625000000000E+01,      /* J = 57 */
(PID.TID 0000.0001)                 7.171875000000000E+01,      /* J = 58 */
(PID.TID 0000.0001)                 7.453125000000000E+01,      /* J = 59 */
(PID.TID 0000.0001)                 7.734375000000000E+01,      /* J = 60 */
(PID.TID 0000.0001)                 8.015625000000000E+01,      /* J = 61 */
(PID.TID 0000.0001)                 8.296875000000000E+01,      /* J = 62 */
(PID.TID 0000.0001)                 8.578125000000000E+01,      /* J = 63 */
(PID.TID 0000.0001)                 8.859375000000000E+01       /* J = 64 */
(PID.TID 0000.0001)     ;
(PID.TID 0000.0001) rcoord =   /* P-point R coordinate (  units of r ) */
(PID.TID 0000.0001)                 9.500000000000000E+04,      /* K =  1 */
(PID.TID 0000.0001)                 7.750000000000000E+04,      /* K =  2 */
(PID.TID 0000.0001)                 5.000000000000000E+04,      /* K =  3 */
(PID.TID 0000.0001)                 2.500000000000000E+04,      /* K =  4 */
(PID.TID 0000.0001)                 7.500000000000000E+03       /* K =  5 */
(PID.TID 0000.0001)     ;
(PID.TID 0000.0001) rF =   /* W-Interf. R coordinate (  units of r ) */
(PID.TID 0000.0001)                 1.000000000000000E+05,      /* K =  1 */
(PID.TID 0000.0001)                 9.000000000000000E+04,      /* K =  2 */
(PID.TID 0000.0001)                 6.500000000000000E+04,      /* K =  3 */
(PID.TID 0000.0001)                 3.500000000000000E+04,      /* K =  4 */
(PID.TID 0000.0001)                 1.500000000000000E+04,      /* K =  5 */
(PID.TID 0000.0001)                 0.000000000000000E+00       /* K =  6 */
(PID.TID 0000.0001)     ;
(PID.TID 0000.0001) dxF =  /* dxF(:,1,:,1) ( m - cartesian, degrees - spherical ) */
(PID.TID 0000.0001)                 7.673714381622298E+03,      /* I =  1 */
(PID.TID 0000.0001)                 3.368431837502683E+08       /* I =  2 */
(PID.TID 0000.0001)     ;
(PID.TID 0000.0001) dxF =  /* dxF(1,:,1,:) ( m - cartesian, degrees - spherical ) */
(PID.TID 0000.0001)                 7.673714381622298E+03,      /* J =  1 */
(PID.TID 0000.0001)                 2.300265649478360E+04,      /* J =  2 */
(PID.TID 0000.0001)                 3.827618319365421E+04,      /* J =  3 */
(PID.TID 0000.0001)                 5.345749921461356E+04,      /* J =  4 */
(PID.TID 0000.0001)                 6.851003143764105E+04,      /* J =  5 */
(PID.TID 0000.0001)                 8.339751699416523E+04,      /* J =  6 */
(PID.TID 0000.0001)                 9.808409062749070E+04,      /* J =  7 */
(PID.TID 0000.0001)                 1.125343710953429E+05,      /* J =  8 */
(PID.TID 0000.0001)                 1.267135464063795E+05,      /* J =  9 */
(PID.TID 0000.0001)                 1.405874576853274E+05,      /* J = 10 */
(PID.TID 0000.0001)                 1.541226814647045E+05,      /* J = 11 */
(PID.TID 0000.0001)                 1.672866102048804E+05,      /* J = 12 */
(PID.TID 0000.0001)                 1.800475308484964E+05,      /* J = 13 */
(PID.TID 0000.0001)                 1.923747012199971E+05,      /* J = 14 */
(PID.TID 0000.0001)                 2.042384240862251E+05,      /* J = 15 */
(PID.TID 0000.0001)                 2.156101186996563E+05,      /* J = 16 */
(PID.TID 0000.0001)                 2.264623896519241E+05,      /* J = 17 */
(PID.TID 0000.0001)                 2.367690928717576E+05,      /* J = 18 */
(PID.TID 0000.0001)                 2.465053986083400E+05,      /* J = 19 */
(PID.TID 0000.0001)                 2.556478512483520E+05,      /* J = 20 */
(PID.TID 0000.0001)                 2.641744258225996E+05,      /* J = 21 */
(PID.TID 0000.0001)                 2.720645810660936E+05,      /* J = 22 */
(PID.TID 0000.0001)                 2.792993089037566E+05,      /* J = 23 */
(PID.TID 0000.0001)                 2.858611802425402E+05,      /* J = 24 */
(PID.TID 0000.0001)                 2.917343869596373E+05,      /* J = 25 */
(PID.TID 0000.0001)                 2.969047799856343E+05,      /* J = 26 */
(PID.TID 0000.0001)                 3.013599033908587E+05,      /* J = 27 */
(PID.TID 0000.0001)                 3.050890243928044E+05,      /* J = 28 */
(PID.TID 0000.0001)                 3.080831592123453E+05,      /* J = 29 */
(PID.TID 0000.0001)                 3.103350947164461E+05,      /* J = 30 */
(PID.TID 0000.0001)                 3.118394057952310E+05,      /* J = 31 */
(PID.TID 0000.0001)     2 @  3.125924684315491E+05,             /* J = 32: 33 */
(PID.TID 0000.0001)                 3.118394057952310E+05,      /* J = 34 */
(PID.TID 0000.0001)                 3.103350947164461E+05,      /* J = 35 */
(PID.TID 0000.0001)                 3.080831592123453E+05,      /* J = 36 */
(PID.TID 0000.0001)                 3.050890243928044E+05,      /* J = 37 */
(PID.TID 0000.0001)                 3.013599033908587E+05,      /* J = 38 */
(PID.TID 0000.0001)                 2.969047799856343E+05,      /* J = 39 */
(PID.TID 0000.0001)                 2.917343869596373E+05,      /* J = 40 */
(PID.TID 0000.0001)                 2.858611802425402E+05,      /* J = 41 */
(PID.TID 0000.0001)                 2.792993089037566E+05,      /* J = 42 */
(PID.TID 0000.0001)                 2.720645810660936E+05,      /* J = 43 */
(PID.TID 0000.0001)                 2.641744258225996E+05,      /* J = 44 */
(PID.TID 0000.0001)                 2.556478512483520E+05,      /* J = 45 */
(PID.TID 0000.0001)                 2.465053986083400E+05,      /* J = 46 */
(PID.TID 0000.0001)                 2.367690928717576E+05,      /* J = 47 */
(PID.TID 0000.0001)                 2.264623896519241E+05,      /* J = 48 */
(PID.TID 0000.0001)                 2.156101186996563E+05,      /* J = 49 */
(PID.TID 0000.0001)                 2.042384240862251E+05,      /* J = 50 */
(PID.TID 0000.0001)                 1.923747012199971E+05,      /* J = 51 */
(PID.TID 0000.0001)                 1.800475308484964E+05,      /* J = 52 */
(PID.TID 0000.0001)                 1.672866102048804E+05,      /* J = 53 */
(PID.TID 0000.0001)                 1.541226814647045E+05,      /* J = 54 */
(PID.TID 0000.0001)                 1.405874576853274E+05,      /* J = 55 */
(PID.TID 0000.0001)                 1.267135464063795E+05,      /* J = 56 */
(PID.TID 0000.0001)                 1.125343710953429E+05,      /* J = 57 */
(PID.TID 0000.0001)                 9.808409062749070E+04,      /* J = 58 */
(PID.TID 0000.0001)                 8.339751699416523E+04,      /* J = 59 */
(PID.TID 0000.0001)                 6.851003143764105E+04,      /* J = 60 */
(PID.TID 0000.0001)                 5.345749921461356E+04,      /* J = 61 */
(PID.TID 0000.0001)                 3.827618319365421E+04,      /* J = 62 */
(PID.TID 0000.0001)                 2.300265649478360E+04,      /* J = 63 */
(PID.TID 0000.0001)                 7.673714381622298E+03       /* J = 64 */
(PID.TID 0000.0001)     ;
(PID.TID 0000.0001) dyF =  /* dyF(:,1,:,1) ( m - cartesian, degrees - spherical ) */
(PID.TID 0000.0001)     2 @  3.126866438026091E+05              /* I =  1:  2 */
(PID.TID 0000.0001)     ;
(PID.TID 0000.0001) dyF =  /* dyF(1,:,1,:) ( m - cartesian, degrees - spherical ) */
(PID.TID 0000.0001)    64 @  3.126866438026091E+05              /* J =  1: 64 */
(PID.TID 0000.0001)     ;
(PID.TID 0000.0001) dxG =  /* dxG(:,1,:,1) ( m - cartesian, degrees - spherical ) */
(PID.TID 0000.0001)     2 @  0.000000000000000E+00              /* I =  1:  2 */
(PID.TID 0000.0001)     ;
(PID.TID 0000.0001) dxG =  /* dxG(1,:,1,:) ( m - cartesian, degrees - spherical ) */
(PID.TID 0000.0001)                 0.000000000000000E+00,      /* J =  1 */
(PID.TID 0000.0001)                 1.534280640463982E+04,      /* J =  2 */
(PID.TID 0000.0001)                 3.064865064477965E+04,      /* J =  3 */
(PID.TID 0000.0001)                 4.588065960101153E+04,      /* J =  4 */
(PID.TID 0000.0001)                 6.100213802959342E+04,      /* J =  5 */
(PID.TID 0000.0001)                 7.597665696450579E+04,      /* J =  6 */
(PID.TID 0000.0001)                 9.076814147802140E+04,      /* J =  7 */
(PID.TID 0000.0001)                 1.053409575883663E+05,      /* J =  8 */
(PID.TID 0000.0001)                 1.196599981051027E+05,      /* J =  9 */
(PID.TID 0000.0001)                 1.336907672054259E+05,      /* J = 10 */
(PID.TID 0000.0001)                 1.473994635376230E+05,      /* J = 11 */
(PID.TID 0000.0001)                 1.607530616514898E+05,      /* J = 12 */
(PID.TID 0000.0001)                 1.737193915595329E+05,      /* J = 13 */
(PID.TID 0000.0001)                 1.862672162372875E+05,      /* J = 14 */
(PID.TID 0000.0001)                 1.983663068760452E+05,      /* J = 15 */
(PID.TID 0000.0001)                 2.099875157067021E+05,      /* J = 16 */
(PID.TID 0000.0001)                 2.211028462192875E+05,      /* J = 17 */
(PID.TID 0000.0001)                 2.316855206090085E+05,      /* J = 18 */
(PID.TID 0000.0001)                 2.417100442863275E+05,      /* J = 19 */
(PID.TID 0000.0001)                 2.511522672956614E+05,      /* J = 20 */
(PID.TID 0000.0001)                 2.599894424947395E+05,      /* J = 21 */
(PID.TID 0000.0001)                 2.682002803544621E+05,      /* J = 22 */
(PID.TID 0000.0001)                 2.757650002472408E+05,      /* J = 23 */
(PID.TID 0000.0001)                 2.826653781002625E+05,      /* J = 24 */
(PID.TID 0000.0001)                 2.888847902988777E+05,      /* J = 25 */
(PID.TID 0000.0001)                 2.944082537343438E+05,      /* J = 26 */
(PID.TID 0000.0001)                 2.992224618994464E+05,      /* J = 27 */
(PID.TID 0000.0001)                 3.033158169450409E+05,      /* J = 28 */
(PID.TID 0000.0001)                 3.066784576202870E+05,      /* J = 29 */
(PID.TID 0000.0001)                 3.093022830292655E+05,      /* J = 30 */
(PID.TID 0000.0001)                 3.111809721467461E+05,      /* J = 31 */
(PID.TID 0000.0001)                 3.123099990460912E+05,      /* J = 32 */
(PID.TID 0000.0001)                 3.126866438026091E+05,      /* J = 33 */
(PID.TID 0000.0001)                 3.123099990460912E+05,      /* J = 34 */
(PID.TID 0000.0001)                 3.111809721467461E+05,      /* J = 35 */
(PID.TID 0000.0001)                 3.093022830292655E+05,      /* J = 36 */
(PID.TID 0000.0001)                 3.066784576202870E+05,      /* J = 37 */
(PID.TID 0000.0001)                 3.033158169450409E+05,      /* J = 38 */
(PID.TID 0000.0001)                 2.992224618994464E+05,      /* J = 39 */
(PID.TID 0000.0001)                 2.944082537343438E+05,      /* J = 40 */
(PID.TID 0000.0001)                 2.888847902988777E+05,      /* J = 41 */
(PID.TID 0000.0001)                 2.826653781002625E+05,      /* J = 42 */
(PID.TID 0000.0001)                 2.757650002472408E+05,      /* J = 43 */
(PID.TID 0000.0001)                 2.682002803544621E+05,      /* J = 44 */
(PID.TID 0000.0001)                 2.599894424947395E+05,      /* J = 45 */
(PID.TID 0000.0001)                 2.511522672956614E+05,      /* J = 46 */
(PID.TID 0000.0001)                 2.417100442863275E+05,      /* J = 47 */
(PID.TID 0000.0001)                 2.316855206090085E+05,      /* J = 48 */
(PID.TID 0000.0001)                 2.211028462192875E+05,      /* J = 49 */
(PID.TID 0000.0001)                 2.099875157067021E+05,      /* J = 50 */
(PID.TID 0000.0001)                 1.983663068760452E+05,      /* J = 51 */
(PID.TID 0000.0001)                 1.862672162372875E+05,      /* J = 52 */
(PID.TID 0000.0001)                 1.737193915595329E+05,      /* J = 53 */
(PID.TID 0000.0001)                 1.607530616514898E+05,      /* J = 54 */
(PID.TID 0000.0001)                 1.473994635376230E+05,      /* J = 55 */
(PID.TID 0000.0001)                 1.336907672054259E+05,      /* J = 56 */
(PID.TID 0000.0001)                 1.196599981051027E+05,      /* J = 57 */
(PID.TID 0000.0001)                 1.053409575883663E+05,      /* J = 58 */
(PID.TID 0000.0001)                 9.076814147802140E+04,      /* J = 59 */
(PID.TID 0000.0001)                 7.597665696450579E+04,      /* J = 60 */
(PID.TID 0000.0001)                 6.100213802959342E+04,      /* J = 61 */
(PID.TID 0000.0001)                 4.588065960101153E+04,      /* J = 62 */
(PID.TID 0000.0001)                 3.064865064477965E+04,      /* J = 63 */
(PID.TID 0000.0001)                 1.534280640463982E+04       /* J = 64 */
(PID.TID 0000.0001)     ;
(PID.TID 0000.0001) dyG =  /* dyG(:,1,:,1) ( m - cartesian, degrees - spherical ) */
(PID.TID 0000.0001)     2 @  3.126866438026091E+05              /* I =  1:  2 */
(PID.TID 0000.0001)     ;
(PID.TID 0000.0001) dyG =  /* dyG(1,:,1,:) ( m - cartesian, degrees - spherical ) */
(PID.TID 0000.0001)    64 @  3.126866438026091E+05              /* J =  1: 64 */
(PID.TID 0000.0001)     ;
(PID.TID 0000.0001) dxC =  /* dxC(:,1,:,1) ( m - cartesian, degrees - spherical ) */
(PID.TID 0000.0001)     2 @  1.684254287323250E+08              /* I =  1:  2 */
(PID.TID 0000.0001)     ;
(PID.TID 0000.0001) dxC =  /* dxC(1,:,1,:) ( m - cartesian, degrees - spherical ) */
(PID.TID 0000.0001)                 1.684254287323250E+08,      /* J =  1 */
(PID.TID 0000.0001)                 5.048705345868341E+08,      /* J =  2 */
(PID.TID 0000.0001)                 8.400993631020876E+08,      /* J =  3 */
(PID.TID 0000.0001)                 1.173304318667613E+09,      /* J =  4 */
(PID.TID 0000.0001)                 1.503682681360149E+09,      /* J =  5 */
(PID.TID 0000.0001)                 1.830438540766241E+09,      /* J =  6 */
(PID.TID 0000.0001)                 2.152784713400146E+09,      /* J =  7 */
(PID.TID 0000.0001)                 2.469944639097799E+09,      /* J =  8 */
(PID.TID 0000.0001)                 2.781154251818265E+09,      /* J =  9 */
(PID.TID 0000.0001)                 3.085663820345761E+09,      /* J = 10 */
(PID.TID 0000.0001)                 3.382739754457813E+09,      /* J = 11 */
(PID.TID 0000.0001)                 3.671666372208367E+09,      /* J = 12 */
(PID.TID 0000.0001)                 3.951747624068280E+09,      /* J = 13 */
(PID.TID 0000.0001)                 4.222308769769599E+09,      /* J = 14 */
(PID.TID 0000.0001)                 4.482698003813975E+09,      /* J = 15 */
(PID.TID 0000.0001)                 4.732288025729191E+09,      /* J = 16 */
(PID.TID 0000.0001)                 4.970477551290949E+09,      /* J = 17 */
(PID.TID 0000.0001)                 5.196692761069231E+09,      /* J = 18 */
(PID.TID 0000.0001)                 5.410388682809571E+09,      /* J = 19 */
(PID.TID 0000.0001)                 5.611050504318942E+09,      /* J = 20 */
(PID.TID 0000.0001)                 5.798194813693431E+09,      /* J = 21 */
(PID.TID 0000.0001)                 5.971370763899847E+09,      /* J = 22 */
(PID.TID 0000.0001)                 6.130161158905723E+09,      /* J = 23 */
(PID.TID 0000.0001)                 6.274183458741092E+09,      /* J = 24 */
(PID.TID 0000.0001)                 6.403090701070787E+09,      /* J = 25 */
(PID.TID 0000.0001)                 6.516572337057097E+09,      /* J = 26 */
(PID.TID 0000.0001)                 6.614354979499112E+09,      /* J = 27 */
(PID.TID 0000.0001)                 6.696203061446442E+09,      /* J = 28 */
(PID.TID 0000.0001)                 6.761919403700629E+09,      /* J = 29 */
(PID.TID 0000.0001)                 6.811345689837113E+09,      /* J = 30 */
(PID.TID 0000.0001)                 6.844362847603358E+09,      /* J = 31 */
(PID.TID 0000.0001)     2 @  6.860891335774345E+09,             /* J = 32: 33 */
(PID.TID 0000.0001)                 6.844362847603358E+09,      /* J = 34 */
(PID.TID 0000.0001)                 6.811345689837113E+09,      /* J = 35 */
(PID.TID 0000.0001)                 6.761919403700629E+09,      /* J = 36 */
(PID.TID 0000.0001)                 6.696203061446442E+09,      /* J = 37 */
(PID.TID 0000.0001)                 6.614354979499112E+09,      /* J = 38 */
(PID.TID 0000.0001)                 6.516572337057097E+09,      /* J = 39 */
(PID.TID 0000.0001)                 6.403090701070787E+09,      /* J = 40 */
(PID.TID 0000.0001)                 6.274183458741092E+09,      /* J = 41 */
(PID.TID 0000.0001)                 6.130161158905723E+09,      /* J = 42 */
(PID.TID 0000.0001)                 5.971370763899847E+09,      /* J = 43 */
(PID.TID 0000.0001)                 5.798194813693431E+09,      /* J = 44 */
(PID.TID 0000.0001)                 5.611050504318942E+09,      /* J = 45 */
(PID.TID 0000.0001)                 5.410388682809571E+09,      /* J = 46 */
(PID.TID 0000.0001)                 5.196692761069231E+09,      /* J = 47 */
(PID.TID 0000.0001)                 4.970477551290949E+09,      /* J = 48 */
(PID.TID 0000.0001)                 4.732288025729191E+09,      /* J = 49 */
(PID.TID 0000.0001)                 4.482698003813975E+09,      /* J = 50 */
(PID.TID 0000.0001)                 4.222308769769599E+09,      /* J = 51 */
(PID.TID 0000.0001)                 3.951747624068280E+09,      /* J = 52 */
(PID.TID 0000.0001)                 3.671666372208367E+09,      /* J = 53 */
(PID.TID 0000.0001)                 3.382739754457813E+09,      /* J = 54 */
(PID.TID 0000.0001)                 3.085663820345761E+09,      /* J = 55 */
(PID.TID 0000.0001)                 2.781154251818265E+09,      /* J = 56 */
(PID.TID 0000.0001)                 2.469944639097799E+09,      /* J = 57 */
(PID.TID 0000.0001)                 2.152784713400146E+09,      /* J = 58 */
(PID.TID 0000.0001)                 1.830438540766241E+09,      /* J = 59 */
(PID.TID 0000.0001)                 1.503682681360149E+09,      /* J = 60 */
(PID.TID 0000.0001)                 1.173304318667613E+09,      /* J = 61 */
(PID.TID 0000.0001)                 8.400993631020876E+08,      /* J = 62 */
(PID.TID 0000.0001)                 5.048705345868341E+08,      /* J = 63 */
(PID.TID 0000.0001)                 1.684254287323250E+08       /* J = 64 */
(PID.TID 0000.0001)     ;
(PID.TID 0000.0001) dyC =  /* dyC(:,1,:,1) ( m - cartesian, degrees - spherical ) */
(PID.TID 0000.0001)     2 @  3.126866438026091E+05              /* I =  1:  2 */
(PID.TID 0000.0001)     ;
[...]
(PID.TID 0000.0001) %MON advcfl_uvel_max              =   6.5082502264923E-06
(PID.TID 0000.0001) %MON advcfl_vvel_max              =   1.0995740324931E-01
(PID.TID 0000.0001) %MON advcfl_wvel_max              =   1.1779571851282E-01
(PID.TID 0000.0001) %MON advcfl_W_hf_max              =   1.2028929543417E-01
(PID.TID 0000.0001) %MON pe_b_mean                    =   3.0078633165879E+01
(PID.TID 0000.0001) %MON ke_max                       =   3.1537925468724E+06
(PID.TID 0000.0001) %MON ke_mean                      =   8.4034632088622E+01
(PID.TID 0000.0001) %MON ke_vol                       =   1.7486817826145E+22
(PID.TID 0000.0001) %MON vort_r_min                   =  -2.3488399903176E-01
(PID.TID 0000.0001) %MON vort_r_max                   =   2.3488084608732E-01
(PID.TID 0000.0001) %MON vort_a_mean                  =  -6.2273817962274E-15
(PID.TID 0000.0001) %MON vort_a_sd                    =   3.1605079521317E-04
(PID.TID 0000.0001) %MON vort_p_mean                  =  -6.2273775489887E-15
(PID.TID 0000.0001) %MON vort_p_sd                    =   3.1605079521317E-04
(PID.TID 0000.0001) %MON surfExpan_theta_mean         =  -5.3640343932238E+00
(PID.TID 0000.0001) %MON surfExpan_salt_mean          =   0.0000000000000E+00
(PID.TID 0000.0001) %MON surfExpan_Heat_mean          =  -5.4099291192946E+02
(PID.TID 0000.0001) %MON En_Budget_T2PE_mean          =   1.5686182023336E+02
(PID.TID 0000.0001) // =======================================================
(PID.TID 0000.0001) // End MONITOR dynamic field statistics
(PID.TID 0000.0001) // =======================================================
 cg2d: Sum(rhs),rhsMax =   2.82214098553009E-15  2.47335551275212E+03
(PID.TID 0000.0001)                    cg2d_init_res =    5.13991039256373E-01
(PID.TID 0000.0001)                       cg2d_iters =    17
(PID.TID 0000.0001)                         cg2d_res =    1.63172375834807E-14
(PID.TID 0000.0001) // =======================================================
(PID.TID 0000.0001) // Begin MONITOR dynamic field statistics
(PID.TID 0000.0001) // =======================================================
(PID.TID 0000.0001) %MON time_tsnumber                =                    10
(PID.TID 0000.0001) %MON time_secondsf                =   1.2000000000000E+04
(PID.TID 0000.0001) %MON dynstat_eta_max              =   4.8644960787198E+03
(PID.TID 0000.0001) %MON dynstat_eta_min              =  -3.5495592173051E+03
(PID.TID 0000.0001) %MON dynstat_eta_mean             =  -3.4807578946122E-13
(PID.TID 0000.0001) %MON dynstat_eta_sd               =   2.7975011099960E+03
(PID.TID 0000.0001) %MON dynstat_eta_del2             =   7.6248569086120E+00
(PID.TID 0000.0001) %MON dynstat_uvel_max             =   1.9888928218545E+01
(PID.TID 0000.0001) %MON dynstat_uvel_min             =  -2.0671131925471E+00
(PID.TID 0000.0001) %MON dynstat_uvel_mean            =   5.2651130969339E+00
(PID.TID 0000.0001) %MON dynstat_uvel_sd              =   5.9047317540608E+00
(PID.TID 0000.0001) %MON dynstat_uvel_del2            =   4.1276203436418E-02
(PID.TID 0000.0001) %MON dynstat_vvel_max             =   2.9039272436661E+01
(PID.TID 0000.0001) %MON dynstat_vvel_min             =  -2.9039273995043E+01
(PID.TID 0000.0001) %MON dynstat_vvel_mean            =  -2.6711172036160E-07
(PID.TID 0000.0001) %MON dynstat_vvel_sd              =   1.1115947958301E+01
(PID.TID 0000.0001) %MON dynstat_vvel_del2            =   3.7750798332454E-02
(PID.TID 0000.0001) %MON dynstat_wvel_max             =   4.7156449356575E-01
(PID.TID 0000.0001) %MON dynstat_wvel_min             =  -4.3008946687374E-01
(PID.TID 0000.0001) %MON dynstat_wvel_mean            =  -9.2579041763525E-18
(PID.TID 0000.0001) %MON dynstat_wvel_sd              =   2.6795950808766E-01
(PID.TID 0000.0001) %MON dynstat_wvel_del2            =   1.3595418250370E-03
(PID.TID 0000.0001) %MON dynstat_theta_max            =   4.2486476734328E+02
(PID.TID 0000.0001) %MON dynstat_theta_min            =   2.5504130036328E+02
(PID.TID 0000.0001) %MON dynstat_theta_mean           =   3.1915082648250E+02
(PID.TID 0000.0001) %MON dynstat_theta_sd             =   4.5349984920993E+01
(PID.TID 0000.0001) %MON dynstat_theta_del2           =   4.7006083710366E-02
(PID.TID 0000.0001) %MON dynstat_salt_max             =   0.0000000000000E+00
(PID.TID 0000.0001) %MON dynstat_salt_min             =   0.0000000000000E+00
(PID.TID 0000.0001) %MON dynstat_salt_mean            =   0.0000000000000E+00
(PID.TID 0000.0001) %MON dynstat_salt_sd              =   0.0000000000000E+00
(PID.TID 0000.0001) %MON dynstat_salt_del2            =   0.0000000000000E+00
(PID.TID 0000.0001) %MON advcfl_uvel_max              =   7.5858530287650E-06
(PID.TID 0000.0001) %MON advcfl_vvel_max              =   1.1144425092889E-01
(PID.TID 0000.0001) %MON advcfl_wvel_max              =   1.1029745163891E-01
(PID.TID 0000.0001) %MON advcfl_W_hf_max              =   1.1317547845578E-01
(PID.TID 0000.0001) %MON pe_b_mean                    =   3.9130062302144E+01
(PID.TID 0000.0001) %MON ke_max                       =   4.3418364664955E+06
(PID.TID 0000.0001) %MON ke_mean                      =   9.3066521869357E+01
(PID.TID 0000.0001) %MON ke_vol                       =   1.7486817826145E+22
(PID.TID 0000.0001) %MON vort_r_min                   =  -2.7203304733957E-01
(PID.TID 0000.0001) %MON vort_r_max                   =   2.7203018429532E-01
(PID.TID 0000.0001) %MON vort_a_mean                  =  -1.0770571767663E-14
(PID.TID 0000.0001) %MON vort_a_sd                    =   3.6683049548908E-04
(PID.TID 0000.0001) %MON vort_p_mean                  =  -1.0770564470802E-14
(PID.TID 0000.0001) %MON vort_p_sd                    =   3.6683049548908E-04
(PID.TID 0000.0001) %MON surfExpan_theta_mean         =  -5.0671620057831E+00
(PID.TID 0000.0001) %MON surfExpan_salt_mean          =   0.0000000000000E+00
(PID.TID 0000.0001) %MON surfExpan_Heat_mean          =  -5.1105166890613E+02
(PID.TID 0000.0001) %MON En_Budget_T2PE_mean          =   1.5250426226573E+02
(PID.TID 0000.0001) // =======================================================
(PID.TID 0000.0001) // End MONITOR dynamic field statistics
(PID.TID 0000.0001) // =======================================================
objf_test       314.8    1   31    1 TILE     1   31    1    1
objf_test       629.7    2   31    1 TILE     2   31    1    1
objf_test       944.8    1   32    1 TILE     1   32    1    1
objf_test      1260.0    2   32    1 TILE     2   32    1    1
objf_test      1575.1    1   33    1 TILE     1   33    1    1
objf_test      1890.2    2   33    1 TILE     2   33    1    1
objf_test      2205.1    1   34    1 TILE     1   34    1    1
objf_test      2519.9    2   34    1 TILE     2   34    1    1
objf_test      2834.2    1   35    1 TILE     1   35    1    1
objf_test      3148.4    2   35    1 TILE     2   35    1    1
objf_test      3461.9    1   36    1 TILE     1   36    1    1
objf_test      3775.3    2   36    1 TILE     2   36    1    1
objf_test      4087.6    1   37    1 TILE     1   37    1    1
objf_test      4399.9    2   37    1 TILE     2   37    1    1
objf_test      4710.7    1   38    1 TILE     1   38    1    1
objf_test      5021.6    2   38    1 TILE     2   38    1    1
objf_test      5330.9    1   39    1 TILE     1   39    1    1
objf_test      5640.2    2   39    1 TILE     2   39    1    1
  --> objf_test(bi,bj)   =  626.685518
  --> objf_tracer(bi,bj) =  0.
  --> objf_atl(bi,bj)    =  0.
  local fc =   626.685518
  global fc =   626.685518
(PID.TID 0000.0001)  MDSREADFIELD: opening file: xx_theta.0000000000.001.001.data
 grad-res -------------------------------
 grad-res     0    4    2    2    1   0.626685518E+03 0.626685518E+03 0.626685518E+03
 grad-res     0    4    4    4    0   0.273985673E-05 0.189629645E-07 0.993078848E+00
(PID.TID 0000.0001)       precision_grdchk_result TLM     6.26685517531958E+02     2.73985673303888E-06
 ph-grd  ierr ---------------------------
 ph-grd  ierr =  0, icomp =  4, ichknum =  4
(PID.TID 0000.0001) 
(PID.TID 0000.0001) // =======================================================
(PID.TID 0000.0001) // Gradient check results  >>> START <<<
(PID.TID 0000.0001) // =======================================================
(PID.TID 0000.0001) 
(PID.TID 0000.0001) 
(PID.TID 0000.0001)  EPS =  0.100E-01
(PID.TID 0000.0001) grdchk output:            procId               I        ITILEPOS        JTILEPOS           LAYER            X(I)      X(I)+/-EPS
(PID.TID 0000.0001) grdchk output:                                FC             FC1             FC2 FC1-FC2/(2*EPS)    TLM GRAD(FC)  1-FDGRD/TLMGRD
(PID.TID 0000.0001) grdchk output:                 0               1               1               1               1 0.000000000E+00 -.100000000E-01
(PID.TID 0000.0001) grdchk output:                   0.626685518E+03 0.626685518E+03 0.626685518E+03 0.604245542E-08 0.604078968E-08 -.275749954E-03
(PID.TID 0000.0001) 
(PID.TID 0000.0001) grdchk output:                 0               2               2               1               1 0.000000000E+00 -.100000000E-01
(PID.TID 0000.0001) grdchk output:                   0.626685518E+03 0.626685518E+03 0.626685518E+03 0.604245542E-08 0.134788179E-05 0.995517073E+00
(PID.TID 0000.0001) 
(PID.TID 0000.0001) grdchk output:                 0               3               1               2               1 0.000000000E+00 -.100000000E-01
(PID.TID 0000.0001) grdchk output:                   0.626685518E+03 0.626685518E+03 0.626685518E+03 0.189629645E-07 0.118617873E-05 0.984013400E+00
(PID.TID 0000.0001) 
(PID.TID 0000.0001) grdchk output:                 0               4               2               2               1 0.000000000E+00 -.100000000E-01
(PID.TID 0000.0001) grdchk output:                   0.626685518E+03 0.626685518E+03 0.626685518E+03 0.189629645E-07 0.273985673E-05 0.993078848E+00
(PID.TID 0000.0001) 
(PID.TID 0000.0001) 
(PID.TID 0000.0001) // =======================================================
(PID.TID 0000.0001) // Gradient check results  >>> END <<<
(PID.TID 0000.0001) // =======================================================
(PID.TID 0000.0001) 
(PID.TID 0000.0001) %CHECKPOINT        10 ckptA
(PID.TID 0000.0001)   Seconds in section "ALL                    [THE_MODEL_MAIN]":
(PID.TID 0000.0001)           User time:  1.86000001
(PID.TID 0000.0001)         System time:  0.200000003
(PID.TID 0000.0001)     Wall clock time:  2.15607798
(PID.TID 0000.0001)          No. starts: 1
(PID.TID 0000.0001)           No. stops: 1
(PID.TID 0000.0001)   Seconds in section "INITIALISE_FIXED       [THE_MODEL_MAIN]":
(PID.TID 0000.0001)           User time:  0.0599999987
(PID.TID 0000.0001)         System time:  0.
(PID.TID 0000.0001)     Wall clock time:  0.0806120634
(PID.TID 0000.0001)          No. starts: 1
(PID.TID 0000.0001)           No. stops: 1
(PID.TID 0000.0001)   Seconds in section "CTRL_UNPACK      [THE_MODEL_MAIN]":
(PID.TID 0000.0001)           User time:  0.
(PID.TID 0000.0001)         System time:  0.
(PID.TID 0000.0001)     Wall clock time:  0.000230073929
(PID.TID 0000.0001)          No. starts: 1
(PID.TID 0000.0001)           No. stops: 1
(PID.TID 0000.0001)   Seconds in section "CTRL_PACK     [THE_MODEL_MAIN]":
(PID.TID 0000.0001)           User time:  0.0100000016
(PID.TID 0000.0001)         System time:  0.
(PID.TID 0000.0001)     Wall clock time:  0.00578606129
(PID.TID 0000.0001)          No. starts: 1
(PID.TID 0000.0001)           No. stops: 1
(PID.TID 0000.0001)   Seconds in section "G_THE_MAIN_LOOP           [TANGENT RUN]":
(PID.TID 0000.0001)           User time:  0.139999993
(PID.TID 0000.0001)         System time:  0.00999999978
(PID.TID 0000.0001)     Wall clock time:  0.153748989
(PID.TID 0000.0001)          No. starts: 1
(PID.TID 0000.0001)           No. stops: 1
(PID.TID 0000.0001)   Seconds in section "CTRL_PACK           [THE_MODEL_MAIN]":
(PID.TID 0000.0001)           User time:  0.
(PID.TID 0000.0001)         System time:  0.00999999978
(PID.TID 0000.0001)     Wall clock time:  0.00599098206
(PID.TID 0000.0001)          No. starts: 1
(PID.TID 0000.0001)           No. stops: 1
(PID.TID 0000.0001)   Seconds in section "GRDCHK_MAIN         [THE_MODEL_MAIN]":
(PID.TID 0000.0001)           User time:  1.64000003
(PID.TID 0000.0001)         System time:  0.169999998
(PID.TID 0000.0001)     Wall clock time:  1.89122403
(PID.TID 0000.0001)          No. starts: 1
(PID.TID 0000.0001)           No. stops: 1
(PID.TID 0000.0001)   Seconds in section "ADJOINT SPIN-UP":
(PID.TID 0000.0001)           User time:  0.139999926
(PID.TID 0000.0001)         System time:  0.0100000016
(PID.TID 0000.0001)     Wall clock time:  0.149454951
(PID.TID 0000.0001)          No. starts: 8
(PID.TID 0000.0001)           No. stops: 8
(PID.TID 0000.0001)   Seconds in section "INITIALISE_VARIA    [THE_MAIN_LOOP]":
(PID.TID 0000.0001)           User time:  0.0799999833
(PID.TID 0000.0001)         System time:  0.
(PID.TID 0000.0001)     Wall clock time:  0.0713529587
(PID.TID 0000.0001)          No. starts: 8
(PID.TID 0000.0001)           No. stops: 8
(PID.TID 0000.0001)   Seconds in section "WRITE_STATE         [THE_MAIN_LOOP]":
(PID.TID 0000.0001)           User time:  0.0499999523
(PID.TID 0000.0001)         System time:  0.0100000016
(PID.TID 0000.0001)     Wall clock time:  0.0613188744
(PID.TID 0000.0001)          No. starts: 8
(PID.TID 0000.0001)           No. stops: 8
(PID.TID 0000.0001)   Seconds in section "MONITOR             [THE_MAIN_LOOP]":
(PID.TID 0000.0001)           User time:  0.00999999046
(PID.TID 0000.0001)         System time:  0.
(PID.TID 0000.0001)     Wall clock time:  0.0160486698
(PID.TID 0000.0001)          No. starts: 8
(PID.TID 0000.0001)           No. stops: 8
(PID.TID 0000.0001)   Seconds in section "MAIN LOOP           [THE_MAIN_LOOP]":
(PID.TID 0000.0001)           User time:  0.840000033
(PID.TID 0000.0001)         System time:  0.0899999812
(PID.TID 0000.0001)     Wall clock time:  0.942128301
(PID.TID 0000.0001)          No. starts: 8
(PID.TID 0000.0001)           No. stops: 8
(PID.TID 0000.0001)   Seconds in section "FORWARD_STEP        [THE_MAIN_LOOP]":
(PID.TID 0000.0001)           User time:  0.810000062
(PID.TID 0000.0001)         System time:  0.0899999812
(PID.TID 0000.0001)     Wall clock time:  0.934627295
(PID.TID 0000.0001)          No. starts: 80
(PID.TID 0000.0001)           No. stops: 80
(PID.TID 0000.0001)   Seconds in section "EXTERNAL_FIELDS_LOAD[FORWARD_STEP]":
(PID.TID 0000.0001)           User time:  0.
(PID.TID 0000.0001)         System time:  0.
(PID.TID 0000.0001)     Wall clock time:  0.00156843662
(PID.TID 0000.0001)          No. starts: 80
(PID.TID 0000.0001)           No. stops: 80
(PID.TID 0000.0001)   Seconds in section "THERMODYNAMICS      [FORWARD_STEP]":
(PID.TID 0000.0001)           User time:  0.170000046
(PID.TID 0000.0001)         System time:  0.0199999958
(PID.TID 0000.0001)     Wall clock time:  0.182961822
(PID.TID 0000.0001)          No. starts: 80
(PID.TID 0000.0001)           No. stops: 80
(PID.TID 0000.0001)   Seconds in section "BLOCKING_EXCHANGES  [FORWARD_STEP]":
(PID.TID 0000.0001)           User time:  0.
(PID.TID 0000.0001)         System time:  0.
(PID.TID 0000.0001)     Wall clock time:  0.0239108801
(PID.TID 0000.0001)          No. starts: 160
(PID.TID 0000.0001)           No. stops: 160
(PID.TID 0000.0001)   Seconds in section "SHAP_FILT           [FORWARD_STEP]":
(PID.TID 0000.0001)           User time:  0.120000035
(PID.TID 0000.0001)         System time:  0.
(PID.TID 0000.0001)     Wall clock time:  0.172458053
(PID.TID 0000.0001)          No. starts: 160
(PID.TID 0000.0001)           No. stops: 160
(PID.TID 0000.0001)   Seconds in section "DYNAMICS            [FORWARD_STEP]":
(PID.TID 0000.0001)           User time:  0.129999906
(PID.TID 0000.0001)         System time:  0.
(PID.TID 0000.0001)     Wall clock time:  0.20159173
(PID.TID 0000.0001)          No. starts: 80
(PID.TID 0000.0001)           No. stops: 80
(PID.TID 0000.0001)   Seconds in section "SOLVE_FOR_PRESSURE  [FORWARD_STEP]":
(PID.TID 0000.0001)           User time:  0.0500000119
(PID.TID 0000.0001)         System time:  0.
(PID.TID 0000.0001)     Wall clock time:  0.0622208118
(PID.TID 0000.0001)          No. starts: 80
(PID.TID 0000.0001)           No. stops: 80
(PID.TID 0000.0001)   Seconds in section "THE_CORRECTION_STEP [FORWARD_STEP]":
(PID.TID 0000.0001)           User time:  0.0500000715
(PID.TID 0000.0001)         System time:  0.0100000054
(PID.TID 0000.0001)     Wall clock time:  0.0297418833
(PID.TID 0000.0001)          No. starts: 80
(PID.TID 0000.0001)           No. stops: 80
(PID.TID 0000.0001)   Seconds in section "MONITOR             [FORWARD_STEP]":
(PID.TID 0000.0001)           User time:  0.190000087
(PID.TID 0000.0001)         System tSTOP NORMAL END statement executed
ime:  0.00999999791
(PID.TID 0000.0001)     Wall clock time:  0.159558296
(PID.TID 0000.0001)          No. starts: 80
(PID.TID 0000.0001)           No. stops: 80
(PID.TID 0000.0001)   Seconds in section "DO_THE_MODEL_IO     [FORWARD_STEP]":
(PID.TID 0000.0001)           User time:  0.0299999714
(PID.TID 0000.0001)         System time:  0.0399999768
(PID.TID 0000.0001)     Wall clock time:  0.0768070221
(PID.TID 0000.0001)          No. starts: 80
(PID.TID 0000.0001)           No. stops: 80
(PID.TID 0000.0001)   Seconds in section "WRITE_CHECKPOINT    [FORWARD_STEP]":
(PID.TID 0000.0001)           User time:  0.
(PID.TID 0000.0001)         System time:  0.
(PID.TID 0000.0001)     Wall clock time:  0.00167810917
(PID.TID 0000.0001)          No. starts: 80
(PID.TID 0000.0001)           No. stops: 80
(PID.TID 0000.0001)   Seconds in section "COST_TILE           [THE_MAIN_LOOP]":
(PID.TID 0000.0001)           User time:  0.00999999046
(PID.TID 0000.0001)         System time:  0.
(PID.TID 0000.0001)     Wall clock time:  0.00180613995
(PID.TID 0000.0001)          No. starts: 80
(PID.TID 0000.0001)           No. stops: 80
(PID.TID 0000.0001)   Seconds in section "COST_FINAL         [ADJOINT SPIN-DOWN]":
(PID.TID 0000.0001)           User time:  0.00999999046
(PID.TID 0000.0001)         System time:  0.
(PID.TID 0000.0001)     Wall clock time:  0.00171589851
(PID.TID 0000.0001)          No. starts: 8
(PID.TID 0000.0001)           No. stops: 8
(PID.TID 0000.0001)   Seconds in section "WRITE_CHECKPOINT       [THE_MODEL_MAIN]":
(PID.TID 0000.0001)           User time:  0.00999999046
(PID.TID 0000.0001)         System time:  0.0100000054
(PID.TID 0000.0001)     Wall clock time:  0.0182900429
(PID.TID 0000.0001)          No. starts: 1
(PID.TID 0000.0001)           No. stops: 1
(PID.TID 0000.0001) // ======================================================
(PID.TID 0000.0001) // Tile <-> Tile communication statistics
(PID.TID 0000.0001) // ======================================================
(PID.TID 0000.0001) // o Tile number: 000001
(PID.TID 0000.0001) //         No. X exchanges =              0
(PID.TID 0000.0001) //            Max. X spins =              0
(PID.TID 0000.0001) //            Min. X spins =     1000000000
(PID.TID 0000.0001) //          Total. X spins =              0
(PID.TID 0000.0001) //            Avg. X spins =       0.00E+00
(PID.TID 0000.0001) //         No. Y exchanges =              0
(PID.TID 0000.0001) //            Max. Y spins =              0
(PID.TID 0000.0001) //            Min. Y spins =     1000000000
(PID.TID 0000.0001) //          Total. Y spins =              0
(PID.TID 0000.0001) //            Avg. Y spins =       0.00E+00
(PID.TID 0000.0001) // o Thread number: 000001
(PID.TID 0000.0001) //            No. barriers =          69308
(PID.TID 0000.0001) //      Max. barrier spins =              1
(PID.TID 0000.0001) //      Min. barrier spins =              1
(PID.TID 0000.0001) //     Total barrier spins =          69308
(PID.TID 0000.0001) //      Avg. barrier spins =       1.00E+00
