(PID.TID 0000.0001) 
(PID.TID 0000.0001) // ======================================================
(PID.TID 0000.0001) //                      MITgcm UV
(PID.TID 0000.0001) //                      =========
(PID.TID 0000.0001) // ======================================================
(PID.TID 0000.0001) // execution environment starting up...
(PID.TID 0000.0001) 
(PID.TID 0000.0001) // MITgcmUV version:  checkpoint63e
(PID.TID 0000.0001) // Build user:        jmc
(PID.TID 0000.0001) // Build host:        baudelaire
(PID.TID 0000.0001) // Build date:        Mon Nov  7 16:07:10 EST 2011
(PID.TID 0000.0001) 
(PID.TID 0000.0001) // =======================================================
(PID.TID 0000.0001) // Execution Environment parameter file "eedata"
(PID.TID 0000.0001) // =======================================================
(PID.TID 0000.0001) ># Example "eedata" file
(PID.TID 0000.0001) ># Lines beginning "#" are comments
(PID.TID 0000.0001) ># nTx - No. threads per process in X
(PID.TID 0000.0001) ># nTy - No. threads per process in Y
(PID.TID 0000.0001) > &EEPARMS
(PID.TID 0000.0001) > /
(PID.TID 0000.0001) ># Note: Some systems use & as the
(PID.TID 0000.0001) ># namelist terminator. Other systems
(PID.TID 0000.0001) ># use a & character (as shown here).
(PID.TID 0000.0001) 
(PID.TID 0000.0001) // =======================================================
(PID.TID 0000.0001) // Computational Grid Specification ( see files "SIZE.h" )
(PID.TID 0000.0001) //                                  ( and "eedata"       )
(PID.TID 0000.0001) // =======================================================
(PID.TID 0000.0001)      nPx =    1 ; /* No. processes in X */
(PID.TID 0000.0001)      nPy =    1 ; /* No. processes in Y */
(PID.TID 0000.0001)      nSx =    2 ; /* No. tiles in X per process */
(PID.TID 0000.0001)      nSy =    2 ; /* No. tiles in Y per process */
(PID.TID 0000.0001)      sNx =   25 ; /* Tile size in X */
(PID.TID 0000.0001)      sNy =   13 ; /* Tile size in Y */
(PID.TID 0000.0001)      OLx =    3 ; /* Tile overlap distance in X */
(PID.TID 0000.0001)      OLy =    3 ; /* Tile overlap distance in Y */
(PID.TID 0000.0001)      nTx =    1 ; /* No. threads in X per process */
(PID.TID 0000.0001)      nTy =    1 ; /* No. threads in Y per process */
(PID.TID 0000.0001)       Nr =   40 ; /* No. levels in the vertical   */
(PID.TID 0000.0001)       Nx =   50 ; /* Total domain size in X ( = nPx*nSx*sNx ) */
(PID.TID 0000.0001)       Ny =   26 ; /* Total domain size in Y ( = nPy*nSy*sNy ) */
(PID.TID 0000.0001)   nTiles =    4 ; /* Total no. tiles per process ( = nSx*nSy ) */
(PID.TID 0000.0001)   nProcs =    1 ; /* Total no. processes ( = nPx*nPy ) */
(PID.TID 0000.0001) nThreads =    1 ; /* Total no. threads per process ( = nTx*nTy ) */
(PID.TID 0000.0001) usingMPI =    F ; /* Flag used to control whether MPI is in use */
(PID.TID 0000.0001)                   /*  note: To execute a program with MPI calls */
(PID.TID 0000.0001)                   /*  it must be launched appropriately e.g     */
(PID.TID 0000.0001)                   /*  "mpirun -np 64 ......"                    */
(PID.TID 0000.0001) useCoupler=    F ;/* Flag used to control communications with   */
(PID.TID 0000.0001)                   /*  other model components, through a coupler */
(PID.TID 0000.0001) debugMode =    F ; /* print debug msg. (sequence of S/R calls)  */
(PID.TID 0000.0001) printMapIncludesZeros=    F ; /* print zeros in Std.Output maps */
(PID.TID 0000.0001) maxLengthPrt1D=   65 /* maxLength of 1D array printed to StdOut */
(PID.TID 0000.0001) 
(PID.TID 0000.0001) // ======================================================
(PID.TID 0000.0001) // Mapping of tiles to threads
(PID.TID 0000.0001) // ======================================================
(PID.TID 0000.0001) // -o- Thread   1, tiles (   1:   2,   1:   2)
(PID.TID 0000.0001) 
(PID.TID 0000.0001) W2_READPARMS: file data.exch2 not found
(PID.TID 0000.0001) => use W2_EXCH2 default: Single sub-domain (nFacets=1)
(PID.TID 0000.0001) W2_useE2ioLayOut=    T ;/* T: use Exch2 glob IO map; F: use model default */
(PID.TID 0000.0001) W2_mapIO        =  -1 ; /* select option for Exch2 global-IO map */
(PID.TID 0000.0001) W2_printMsg     =  -1 ; /* select option for printing information */
(PID.TID 0000.0001) ===== Start setting W2 TOPOLOGY:
(PID.TID 0000.0001)  write to log-file: w2_tile_topology.0000.log
(PID.TID 0000.0001) =====       setting W2 TOPOLOGY: Done
(PID.TID 0000.0001) 
(PID.TID 0000.0001)  INI_PARMS: opening model parameter file "data"
(PID.TID 0000.0001)  OPEN_COPY_DATA_FILE: opening file data
(PID.TID 0000.0001) // =======================================================
(PID.TID 0000.0001) // Parameter file "data"
(PID.TID 0000.0001) // =======================================================
(PID.TID 0000.0001) ># ====================
(PID.TID 0000.0001) ># | Model parameters |
(PID.TID 0000.0001) ># ====================
(PID.TID 0000.0001) >#
(PID.TID 0000.0001) ># Continuous equation parameters
(PID.TID 0000.0001) > &PARM01
(PID.TID 0000.0001) > viscAr=5.E-5,
(PID.TID 0000.0001) ># This is the background viscosity used total=viscah+viscleith
(PID.TID 0000.0001) ># viscAh=1.E2,
(PID.TID 0000.0001) ># viscA4=1.E2,
(PID.TID 0000.0001) ># This is the background viscosity used on vorticity points
(PID.TID 0000.0001) ># viscAhZ=1.E2,
(PID.TID 0000.0001) ># viscA4Z=1.E2,
(PID.TID 0000.0001) ># This is the background viscosity used on divergence points
(PID.TID 0000.0001) ># viscAhD=1.E2,
(PID.TID 0000.0001) ># viscA4D=1.E2,
(PID.TID 0000.0001) ># viscAhd and viscahz are set to viscah if they are unset initially
(PID.TID 0000.0001) >#
(PID.TID 0000.0001) ># This is a maximum gridscale Reynolds number limiter
(PID.TID 0000.0001) ># ViscAhRemax=10,
(PID.TID 0000.0001) ># ViscA4Remax=10,
(PID.TID 0000.0001) ># This is a minimum autoscaling viscosity
(PID.TID 0000.0001) ># ViscAhGridMin=.01,
(PID.TID 0000.0001) ># ViscA4GridMin=.01,
(PID.TID 0000.0001) ># This is the standard Leith Viscosity, prop to grad(curl v_h)
(PID.TID 0000.0001) > viscC2leith=1.85,
(PID.TID 0000.0001) ># viscC4leith=1.85,
(PID.TID 0000.0001) ># This is an additional Leith Viscosity, prop to grad(div.v_h)
(PID.TID 0000.0001) ># It traps instabilities that have no signal in grad(curl v_h)
(PID.TID 0000.0001) > viscC2leithD=1.85,
(PID.TID 0000.0001) ># viscC4leithD=1.85,
(PID.TID 0000.0001) ># This is harmonic Smagorinsky Coefficient
(PID.TID 0000.0001) ># 0.2-0.9=value from 3-d turbulence theory; Smagorinsky (1993)
(PID.TID 0000.0001) ># 2.2-4=stable oceanic values (Griffies and Hallberg, 2000)
(PID.TID 0000.0001) ># 1.0 smag is approximately the same as 1.85 leith+leithd
(PID.TID 0000.0001) ># for this grid
(PID.TID 0000.0001) > viscC2Smag=1.0,
(PID.TID 0000.0001) ># viscC4Smag=1.0,
(PID.TID 0000.0001) ># This is the max Viscosity used, be it Smag or Leith, and it scales
(PID.TID 0000.0001) ># with grid size and timestep
(PID.TID 0000.0001) > viscAhGridMax=1.0,
(PID.TID 0000.0001) ># viscA4GridMax=1.0,
(PID.TID 0000.0001) ># This uses the full grad(vort) and grad(div)
(PID.TID 0000.0001) > useFullLeith=.FALSE.,
(PID.TID 0000.0001) ># This uses the Strain-Tension form for calculating viscous terms
(PID.TID 0000.0001) > useStrainTensionVisc=.FALSE.,
(PID.TID 0000.0001) > no_slip_sides=.FALSE.,
(PID.TID 0000.0001) > no_slip_bottom=.FALSE.,
(PID.TID 0000.0001) > ivdc_kappa=10.,
(PID.TID 0000.0001) > implicitDiffusion=.TRUE.,
(PID.TID 0000.0001) > implicitViscosity=.TRUE.,
(PID.TID 0000.0001) > f0=7.29e-5,
(PID.TID 0000.0001) > beta=0.E-11,
(PID.TID 0000.0001) > eosType='LINEAR',
(PID.TID 0000.0001) ># Using Temperature as only Active Tracer
(PID.TID 0000.0001) > tAlpha=2.E-4,
(PID.TID 0000.0001) ># Using Salinity as Spice
(PID.TID 0000.0001) > sBeta =0.E-4,
(PID.TID 0000.0001) > saltStepping=.TRUE.,
(PID.TID 0000.0001) > gravity=9.81,
(PID.TID 0000.0001) > rhonil=1035.,
(PID.TID 0000.0001) > implicitFreeSurface=.TRUE.,
(PID.TID 0000.0001) > usejamartwetpoints=.TRUE.,
(PID.TID 0000.0001) > rigidLid=.FALSE.,
(PID.TID 0000.0001) > staggerTimeStep=.TRUE.,
(PID.TID 0000.0001) > readBinaryPrec=64,
(PID.TID 0000.0001) > writeBinaryPrec=64,
(PID.TID 0000.0001) > tempAdvScheme=33,
(PID.TID 0000.0001) > saltAdvScheme=33,
(PID.TID 0000.0001) > nonHydrostatic=.FALSE.,
(PID.TID 0000.0001) > vectorInvariantMomentum=.TRUE.,
(PID.TID 0000.0001) > /
(PID.TID 0000.0001) >
(PID.TID 0000.0001) ># Elliptic solver parameters
(PID.TID 0000.0001) > &PARM02
(PID.TID 0000.0001) > cg2dMaxIters=1000,
(PID.TID 0000.0001) > cg2dTargetResidual=1.E-11,
(PID.TID 0000.0001) > cg3dMaxIters=40,
(PID.TID 0000.0001) > cg3dTargetResidual=1.E-9,
(PID.TID 0000.0001) > /
(PID.TID 0000.0001) >
(PID.TID 0000.0001) ># Time stepping parameters
(PID.TID 0000.0001) > &PARM03
(PID.TID 0000.0001) > nIter0=0,
(PID.TID 0000.0001) >#endTime=86400.,
(PID.TID 0000.0001) >#- for testing, only run for 12 iterations:
(PID.TID 0000.0001) > nTimeSteps=12,
(PID.TID 0000.0001) > deltaT=1200.,
(PID.TID 0000.0001) > abEps=0.01,
(PID.TID 0000.0001) >#- for testing, reduce amount of output by commenting out output frequencies:
(PID.TID 0000.0001) ># pchkptFreq=7200.,
(PID.TID 0000.0001) ># taveFreq=7200.,
(PID.TID 0000.0001) ># dumpFreq=7200.,
(PID.TID 0000.0001) ># diagFreq=7200.,
(PID.TID 0000.0001) > monitorSelect=2,
(PID.TID 0000.0001) > monitorFreq=1200.,
(PID.TID 0000.0001) > cadjfreq=0.,
(PID.TID 0000.0001) > /
(PID.TID 0000.0001) >
(PID.TID 0000.0001) ># Gridding parameters
(PID.TID 0000.0001) > &PARM04
(PID.TID 0000.0001) > usingCartesianGrid=.TRUE.,
(PID.TID 0000.0001) > delR= 40*5.0,
(PID.TID 0000.0001) > dxSpacing=1.E3,
(PID.TID 0000.0001) > dySpacing=1.E3,
(PID.TID 0000.0001) > /
(PID.TID 0000.0001) >
(PID.TID 0000.0001) ># Input datasets
(PID.TID 0000.0001) > &PARM05
(PID.TID 0000.0001) > bathyFile='topo_sl.bin',
(PID.TID 0000.0001) > hydrogThetaFile='thetaInitial.bin',
(PID.TID 0000.0001) > hydrogSaltFile='spiceInitial.bin',
(PID.TID 0000.0001) > /
(PID.TID 0000.0001) >
(PID.TID 0000.0001) 
(PID.TID 0000.0001)  INI_PARMS ; starts to read PARM01
(PID.TID 0000.0001)  INI_PARMS ; read PARM01 : OK
(PID.TID 0000.0001)  INI_PARMS ; starts to read PARM02
(PID.TID 0000.0001)  INI_PARMS ; read PARM02 : OK
(PID.TID 0000.0001)  INI_PARMS ; starts to read PARM03
(PID.TID 0000.0001)  INI_PARMS ; read PARM03 : OK
(PID.TID 0000.0001)  INI_PARMS ; starts to read PARM04
(PID.TID 0000.0001)  INI_PARMS ; read PARM04 : OK
(PID.TID 0000.0001)  INI_PARMS ; starts to read PARM05
(PID.TID 0000.0001)  INI_PARMS ; read PARM05 : OK
(PID.TID 0000.0001)  INI_PARMS: finished reading file "data"
(PID.TID 0000.0001)  PACKAGES_BOOT: opening data.pkg
(PID.TID 0000.0001)  OPEN_COPY_DATA_FILE: opening file data.pkg
(PID.TID 0000.0001) // =======================================================
(PID.TID 0000.0001) // Parameter file "data.pkg"
(PID.TID 0000.0001) // =======================================================
(PID.TID 0000.0001) ># Packages
(PID.TID 0000.0001) > &PACKAGES
(PID.TID 0000.0001) >  useKPP     = .FALSE.,
(PID.TID 0000.0001) >  useMNC     = .TRUE.,
(PID.TID 0000.0001) >  useDiagnostics=.TRUE.,
(PID.TID 0000.0001) > /
(PID.TID 0000.0001) 
(PID.TID 0000.0001)  PACKAGES_BOOT: finished reading data.pkg
(PID.TID 0000.0001)  MNC_READPARMS: opening file 'data.mnc'
(PID.TID 0000.0001)  OPEN_COPY_DATA_FILE: opening file data.mnc
(PID.TID 0000.0001) // =======================================================
(PID.TID 0000.0001) // Parameter file "data.mnc"
(PID.TID 0000.0001) // =======================================================
(PID.TID 0000.0001) ># Example "data.mnc" file
(PID.TID 0000.0001) ># Lines beginning "#" are comments
(PID.TID 0000.0001) > &MNC_01
(PID.TID 0000.0001) ># mnc_echo_gvtypes=.FALSE.,
(PID.TID 0000.0001) ># mnc_use_indir=.FALSE.,
(PID.TID 0000.0001) > mnc_use_outdir=.TRUE.,
(PID.TID 0000.0001) > mnc_outdir_str='mnc_test_',
(PID.TID 0000.0001) ># mnc_outdir_date=.TRUE.,
(PID.TID 0000.0001) > monitor_mnc=.FALSE.,
(PID.TID 0000.0001) >#snapshot_mnc=.FALSE.,
(PID.TID 0000.0001) >#timeave_mnc=.FALSE.,
(PID.TID 0000.0001) > pickup_read_mnc=.FALSE.,
(PID.TID 0000.0001) > pickup_write_mnc=.FALSE.,
(PID.TID 0000.0001) > /
(PID.TID 0000.0001) ># Note: Some systems use & as the
(PID.TID 0000.0001) ># namelist terminator. Other systems
(PID.TID 0000.0001) ># use a & character (as shown here).
(PID.TID 0000.0001) 
(PID.TID 0000.0001)  MNC_READPARMS: finished reading data.mnc
(PID.TID 0000.0001)  DIAGNOSTICS_READPARMS: opening data.diagnostics
(PID.TID 0000.0001)  OPEN_COPY_DATA_FILE: opening file data.diagnostics
(PID.TID 0000.0001) // =======================================================
(PID.TID 0000.0001) // Parameter file "data.diagnostics"
(PID.TID 0000.0001) // =======================================================
(PID.TID 0000.0001) ># Diagnostic Package Choices
(PID.TID 0000.0001) >#--------------------
(PID.TID 0000.0001) >#  dumpAtLast (logical): always write output at the end of simulation (default=F)
(PID.TID 0000.0001) >#  diag_mnc   (logical): write to NetCDF files (default=useMNC)
(PID.TID 0000.0001) >#--for each output-stream:
(PID.TID 0000.0001) >#  fileName(n) : prefix of the output file name (max 80c long) for outp.stream n
(PID.TID 0000.0001) >#  frequency(n):< 0 : write snap-shot output every |frequency| seconds
(PID.TID 0000.0001) >#               > 0 : write time-average output every frequency seconds
(PID.TID 0000.0001) >#  timePhase(n)     : write at time = timePhase + multiple of |frequency|
(PID.TID 0000.0001) >#    averagingFreq  : frequency (in s) for periodic averaging interval
(PID.TID 0000.0001) >#    averagingPhase : phase     (in s) for periodic averaging interval
(PID.TID 0000.0001) >#    repeatCycle    : number of averaging intervals in 1 cycle
(PID.TID 0000.0001) >#  levels(:,n) : list of levels to write to file (Notes: declared as REAL)
(PID.TID 0000.0001) >#                when this entry is missing, select all common levels of this list
(PID.TID 0000.0001) >#  fields(:,n) : list of selected diagnostics fields (8.c) in outp.stream n
(PID.TID 0000.0001) >#                (see "available_diagnostics.log" file for the full list of diags)
(PID.TID 0000.0001) >#  missing_value(n) : missing value for real-type fields in output file "n"
(PID.TID 0000.0001) >#  fileFlags(n)     : specific code (8c string) for output file "n"
(PID.TID 0000.0001) >#--------------------
(PID.TID 0000.0001) > &DIAGNOSTICS_LIST
(PID.TID 0000.0001) >  dumpAtLast=.TRUE.,
(PID.TID 0000.0001) ># diag_mnc=.FALSE.,
(PID.TID 0000.0001) >#--
(PID.TID 0000.0001) >  fields(1:5,1)  = 'momKE   ','momHDiv ','momVort3',
(PID.TID 0000.0001) >                   'Strain  ','Tension ',
(PID.TID 0000.0001) >   fileName(1) = 'momDiag',
(PID.TID 0000.0001) >  frequency(1) = 864000.,
(PID.TID 0000.0001) >  fields(1:24,2) = 'VISCAHD ','VISCA4D ','VISCAHZ ','VISCA4Z ',
(PID.TID 0000.0001) >                   'VAHDMAX ','VA4DMAX ','VAHZMAX ','VA4ZMAX ',
(PID.TID 0000.0001) >                   'VAHDMIN ','VA4DMIN ','VAHZMIN ','VA4ZMIN ',
(PID.TID 0000.0001) >                   'VAHDLTH ','VA4DLTH ','VAHZLTH ','VA4ZLTH ',
(PID.TID 0000.0001) >                   'VAHDLTHD','VA4DLTHD','VAHZLTHD','VA4ZLTHD',
(PID.TID 0000.0001) >                   'VAHDSMAG','VA4DSMAG','VAHZSMAG','VA4ZSMAG',
(PID.TID 0000.0001) >   fileName(2) = 'viscDiag',
(PID.TID 0000.0001) >  frequency(2) = 864000.,
(PID.TID 0000.0001) > /
(PID.TID 0000.0001) >
(PID.TID 0000.0001) >#--------------------
(PID.TID 0000.0001) ># Parameter for Diagnostics of per level statistics:
(PID.TID 0000.0001) >#--------------------
(PID.TID 0000.0001) >#  diagSt_mnc (logical): write stat-diags to NetCDF files (default=diag_mnc)
(PID.TID 0000.0001) >#  diagSt_regMaskFile : file containing the region-mask to read-in
(PID.TID 0000.0001) >#  nSetRegMskFile   : number of region-mask sets within the region-mask file
(PID.TID 0000.0001) >#  set_regMask(i)   : region-mask set-index that identifies the region "i"
(PID.TID 0000.0001) >#  val_regMask(i)   : region "i" identifier value in the region mask
(PID.TID 0000.0001) >#--for each output-stream:
(PID.TID 0000.0001) >#  stat_fName(n) : prefix of the output file name (max 80c long) for outp.stream n
(PID.TID 0000.0001) >#  stat_freq(n):< 0 : write snap-shot output every |stat_freq| seconds
(PID.TID 0000.0001) >#               > 0 : write time-average output every stat_freq seconds
(PID.TID 0000.0001) >#  stat_phase(n)    : write at time = stat_phase + multiple of |stat_freq|
(PID.TID 0000.0001) >#  stat_region(:,n) : list of "regions" (default: 1 region only=global)
(PID.TID 0000.0001) >#  stat_fields(:,n) : list of selected diagnostics fields (8.c) in outp.stream n
(PID.TID 0000.0001) >#                (see "available_diagnostics.log" file for the full list of diags)
(PID.TID 0000.0001) >#--------------------
(PID.TID 0000.0001) > &DIAG_STATIS_PARMS
(PID.TID 0000.0001) >#- an example just to check the agreement with MONITOR output:
(PID.TID 0000.0001) >#stat_fields(1:5,1)  = 'ETAN    ','UVEL    ','VVEL    ','WVEL    ', 'THETA   ',
(PID.TID 0000.0001) ># stat_fName(1) = 'dynStDiag',
(PID.TID 0000.0001) >#  stat_freq(1) = -864000.,
(PID.TID 0000.0001) ># stat_phase(1) = 0.,
(PID.TID 0000.0001) > /
(PID.TID 0000.0001) >
(PID.TID 0000.0001) 
(PID.TID 0000.0001) S/R DIAGNOSTICS_READPARMS, read namelist "diagnostics_list": start
(PID.TID 0000.0001) S/R DIAGNOSTICS_READPARMS, read namelist "diagnostics_list": OK
(PID.TID 0000.0001) S/R DIAGNOSTICS_READPARMS, read namelist "DIAG_STATIS_PARMS": start
(PID.TID 0000.0001) S/R DIAGNOSTICS_READPARMS, read namelist "DIAG_STATIS_PARMS": OK
(PID.TID 0000.0001)  DIAGNOSTICS_READPARMS: global parameter summary:
(PID.TID 0000.0001)  dumpAtLast = /* always write time-ave diags at the end */
(PID.TID 0000.0001)                   T
(PID.TID 0000.0001)     ;
(PID.TID 0000.0001)  diag_mnc =   /* write NetCDF output files */
(PID.TID 0000.0001)                   T
(PID.TID 0000.0001)     ;
(PID.TID 0000.0001)  useMissingValue = /* put MissingValue where mask = 0 */
(PID.TID 0000.0001)                   F
(PID.TID 0000.0001)     ;
(PID.TID 0000.0001)  diagCG_maxIters = /* max number of iters in diag_cg2d */
(PID.TID 0000.0001)                    1000
(PID.TID 0000.0001)     ;
(PID.TID 0000.0001)  diagCG_resTarget = /* residual target for diag_cg2d */
(PID.TID 0000.0001)                 9.999999999999999E-12
(PID.TID 0000.0001)     ;
(PID.TID 0000.0001) -----------------------------------------------------
(PID.TID 0000.0001)  DIAGNOSTICS_READPARMS: active diagnostics summary:
(PID.TID 0000.0001) -----------------------------------------------------
(PID.TID 0000.0001) Creating Output Stream: momDiag
(PID.TID 0000.0001) Output Frequency:     864000.000000 ; Phase:           0.000000
(PID.TID 0000.0001)  Averaging Freq.:     864000.000000 , Phase:           0.000000 , Cycle:   1
(PID.TID 0000.0001)  missing value:  1.234567000000E+05 ; for integers:   123456789
(PID.TID 0000.0001)  Levels:    will be set later
(PID.TID 0000.0001)  Fields:    momKE    momHDiv  momVort3 Strain   Tension
(PID.TID 0000.0001) Creating Output Stream: viscDiag
(PID.TID 0000.0001) Output Frequency:     864000.000000 ; Phase:           0.000000
(PID.TID 0000.0001)  Averaging Freq.:     864000.000000 , Phase:           0.000000 , Cycle:   1
(PID.TID 0000.0001)  missing value:  1.234567000000E+05 ; for integers:   123456789
(PID.TID 0000.0001)  Levels:    will be set later
(PID.TID 0000.0001)  Fields:    VISCAHD  VISCA4D  VISCAHZ  VISCA4Z  VAHDMAX  VA4DMAX  VAHZMAX  VA4ZMAX  VAHDMIN  VA4DMIN
(PID.TID 0000.0001)  Fields:    VAHZMIN  VA4ZMIN  VAHDLTH  VA4DLTH  VAHZLTH  VA4ZLTH  VAHDLTHD VA4DLTHD VAHZLTHD VA4ZLTHD
(PID.TID 0000.0001)  Fields:    VAHDSMAG VA4DSMAG VAHZSMAG VA4ZSMAG
(PID.TID 0000.0001) -----------------------------------------------------
(PID.TID 0000.0001)  DIAGNOSTICS_READPARMS: statistics diags. summary:
(PID.TID 0000.0001) -----------------------------------------------------
(PID.TID 0000.0001) 
(PID.TID 0000.0001) SET_PARMS: done
(PID.TID 0000.0001) Enter INI_VERTICAL_GRID: setInterFDr=    T ; setCenterDr=    F
(PID.TID 0000.0001) %MON XC_max                       =   4.9500000000000E+04
(PID.TID 0000.0001) %MON XC_min                       =   5.0000000000000E+02
(PID.TID 0000.0001) %MON XC_mean                      =   2.5000000000000E+04
(PID.TID 0000.0001) %MON XC_sd                        =   1.4430869689662E+04
(PID.TID 0000.0001) %MON XG_max                       =   4.9000000000000E+04
(PID.TID 0000.0001) %MON XG_min                       =   0.0000000000000E+00
(PID.TID 0000.0001) %MON XG_mean                      =   2.4500000000000E+04
(PID.TID 0000.0001) %MON XG_sd                        =   1.4430869689662E+04
(PID.TID 0000.0001) %MON DXC_max                      =   1.0000000000000E+03
(PID.TID 0000.0001) %MON DXC_min                      =   1.0000000000000E+03
(PID.TID 0000.0001) %MON DXC_mean                     =   1.0000000000000E+03
(PID.TID 0000.0001) %MON DXC_sd                       =   0.0000000000000E+00
(PID.TID 0000.0001) %MON DXF_max                      =   1.0000000000000E+03
(PID.TID 0000.0001) %MON DXF_min                      =   1.0000000000000E+03
(PID.TID 0000.0001) %MON DXF_mean                     =   1.0000000000000E+03
(PID.TID 0000.0001) %MON DXF_sd                       =   0.0000000000000E+00
(PID.TID 0000.0001) %MON DXG_max                      =   1.0000000000000E+03
(PID.TID 0000.0001) %MON DXG_min                      =   1.0000000000000E+03
(PID.TID 0000.0001) %MON DXG_mean                     =   1.0000000000000E+03
(PID.TID 0000.0001) %MON DXG_sd                       =   0.0000000000000E+00
(PID.TID 0000.0001) %MON DXV_max                      =   1.0000000000000E+03
(PID.TID 0000.0001) %MON DXV_min                      =   1.0000000000000E+03
(PID.TID 0000.0001) %MON DXV_mean                     =   1.0000000000000E+03
(PID.TID 0000.0001) %MON DXV_sd                       =   0.0000000000000E+00
(PID.TID 0000.0001) %MON YC_max                       =   2.5500000000000E+04
(PID.TID 0000.0001) %MON YC_min                       =   5.0000000000000E+02
(PID.TID 0000.0001) %MON YC_mean                      =   1.3000000000000E+04
(PID.TID 0000.0001) %MON YC_sd                        =   7.5000000000000E+03
(PID.TID 0000.0001) %MON YG_max                       =   2.5000000000000E+04
(PID.TID 0000.0001) %MON YG_min                       =   0.0000000000000E+00
(PID.TID 0000.0001) %MON YG_mean                      =   1.2500000000000E+04
(PID.TID 0000.0001) %MON YG_sd                        =   7.5000000000000E+03
(PID.TID 0000.0001) %MON DYC_max                      =   1.0000000000000E+03
(PID.TID 0000.0001) %MON DYC_min                      =   1.0000000000000E+03
(PID.TID 0000.0001) %MON DYC_mean                     =   1.0000000000000E+03
(PID.TID 0000.0001) %MON DYC_sd                       =   0.0000000000000E+00
(PID.TID 0000.0001) %MON DYF_max                      =   1.0000000000000E+03
(PID.TID 0000.0001) %MON DYF_min                      =   1.0000000000000E+03
(PID.TID 0000.0001) %MON DYF_mean                     =   1.0000000000000E+03
(PID.TID 0000.0001) %MON DYF_sd                       =   0.0000000000000E+00
(PID.TID 0000.0001) %MON DYG_max                      =   1.0000000000000E+03
(PID.TID 0000.0001) %MON DYG_min                      =   1.0000000000000E+03
(PID.TID 0000.0001) %MON DYG_mean                     =   1.0000000000000E+03
(PID.TID 0000.0001) %MON DYG_sd                       =   0.0000000000000E+00
(PID.TID 0000.0001) %MON DYU_max                      =   1.0000000000000E+03
(PID.TID 0000.0001) %MON DYU_min                      =   1.0000000000000E+03
(PID.TID 0000.0001) %MON DYU_mean                     =   1.0000000000000E+03
(PID.TID 0000.0001) %MON DYU_sd                       =   0.0000000000000E+00
(PID.TID 0000.0001) %MON RA_max                       =   1.0000000000000E+06
(PID.TID 0000.0001) %MON RA_min                       =   1.0000000000000E+06
(PID.TID 0000.0001) %MON RA_mean                      =   1.0000000000000E+06
(PID.TID 0000.0001) %MON RA_sd                        =   0.0000000000000E+00
(PID.TID 0000.0001) %MON RAW_max                      =   1.0000000000000E+06
(PID.TID 0000.0001) %MON RAW_min                      =   1.0000000000000E+06
(PID.TID 0000.0001) %MON RAW_mean                     =   1.0000000000000E+06
(PID.TID 0000.0001) %MON RAW_sd                       =   0.0000000000000E+00
(PID.TID 0000.0001) %MON RAS_max                      =   1.0000000000000E+06
(PID.TID 0000.0001) %MON RAS_min                      =   1.0000000000000E+06
(PID.TID 0000.0001) %MON RAS_mean                     =   1.0000000000000E+06
(PID.TID 0000.0001) %MON RAS_sd                       =   0.0000000000000E+00
(PID.TID 0000.0001) %MON RAZ_max                      =   1.0000000000000E+06
(PID.TID 0000.0001) %MON RAZ_min                      =   1.0000000000000E+06
(PID.TID 0000.0001) %MON RAZ_mean                     =   1.0000000000000E+06
(PID.TID 0000.0001) %MON RAZ_sd                       =   0.0000000000000E+00
(PID.TID 0000.0001) %MON AngleCS_max                  =   1.0000000000000E+00
(PID.TID 0000.0001) %MON AngleCS_min                  =   1.0000000000000E+00
(PID.TID 0000.0001) %MON AngleCS_mean                 =   1.0000000000000E+00
(PID.TID 0000.0001) %MON AngleCS_sd                   =   0.0000000000000E+00
(PID.TID 0000.0001) %MON AngleSN_max                  =   0.0000000000000E+00
(PID.TID 0000.0001) %MON AngleSN_min                  =   0.0000000000000E+00
(PID.TID 0000.0001) %MON AngleSN_mean                 =   0.0000000000000E+00
(PID.TID 0000.0001) %MON AngleSN_sd                   =   0.0000000000000E+00
(PID.TID 0000.0001)  MDS_READ_FIELD: opening global file: topo_sl.bin
(PID.TID 0000.0001) // =======================================================
(PID.TID 0000.0001) // Field Model R_low (ini_masks_etc)
(PID.TID 0000.0001) // CMIN =         -2.000000000000000E+02
(PID.TID 0000.0001) // CMAX =         -2.000000000000000E+02
(PID.TID 0000.0001) // CINT =          0.000000000000000E+00
(PID.TID 0000.0001) // SYMBOLS (CMIN->CMAX): -abcdefghijklmnopqrstuvwxyz+
(PID.TID 0000.0001) //                  0.0: .
(PID.TID 0000.0001) // RANGE I (Lo:Hi:Step):(    -2:    53:     1)
(PID.TID 0000.0001) // RANGE J (Lo:Hi:Step):(    29:    -2:    -1)
(PID.TID 0000.0001) // RANGE K (Lo:Hi:Step):(   1:   1:   1)
(PID.TID 0000.0001) // =======================================================
(PID.TID 0000.0001) // =======================================================
(PID.TID 0000.0001) // END OF FIELD                                          =
(PID.TID 0000.0001) // =======================================================
(PID.TID 0000.0001) 
(PID.TID 0000.0001) // =======================================================
(PID.TID 0000.0001) // Field Model Ro_surf (ini_masks_etc)
(PID.TID 0000.0001) // CMIN =          1.000000000000000E+32
(PID.TID 0000.0001) // CMAX =         -1.000000000000000E+32
(PID.TID 0000.0001) // CINT =          0.000000000000000E+00
(PID.TID 0000.0001) // SYMBOLS (CMIN->CMAX): -abcdefghijklmnopqrstuvwxyz+
(PID.TID 0000.0001) //                  0.0: .
(PID.TID 0000.0001) // RANGE I (Lo:Hi:Step):(    -2:    53:     1)
(PID.TID 0000.0001) // RANGE J (Lo:Hi:Step):(    29:    -2:    -1)
(PID.TID 0000.0001) // RANGE K (Lo:Hi:Step):(   1:   1:   1)
(PID.TID 0000.0001) // =======================================================
(PID.TID 0000.0001) // =======================================================
(PID.TID 0000.0001) // END OF FIELD                                          =
(PID.TID 0000.0001) // =======================================================
(PID.TID 0000.0001) 
(PID.TID 0000.0001) // =======================================================
(PID.TID 0000.0001) // Field hFacC at iteration          0
(PID.TID 0000.0001) // CMIN =          1.000000000000000E+00
(PID.TID 0000.0001) // CMAX =          1.000000000000000E+00
(PID.TID 0000.0001) // CINT =          0.000000000000000E+00
(PID.TID 0000.0001) // SYMBOLS (CMIN->CMAX): -abcdefghijklmnopqrstuvwxyz+
(PID.TID 0000.0001) //                  0.0: .
(PID.TID 0000.0001) // RANGE I (Lo:Hi:Step):(    -2:    53:     1)
(PID.TID 0000.0001) // RANGE J (Lo:Hi:Step):(    29:    -2:    -1)
(PID.TID 0000.0001) // RANGE K (Lo:Hi:Step):(   1:   1:   1)
(PID.TID 0000.0001) // =======================================================
(PID.TID 0000.0001) // =======================================================
(PID.TID 0000.0001) // END OF FIELD                                          =
(PID.TID 0000.0001) // =======================================================
(PID.TID 0000.0001) 
(PID.TID 0000.0001) // =======================================================
(PID.TID 0000.0001) // Field hFacW at iteration          0
(PID.TID 0000.0001) // CMIN =          1.000000000000000E+00
(PID.TID 0000.0001) // CMAX =          1.000000000000000E+00
(PID.TID 0000.0001) // CINT =          0.000000000000000E+00
(PID.TID 0000.0001) // SYMBOLS (CMIN->CMAX): -abcdefghijklmnopqrstuvwxyz+
(PID.TID 0000.0001) //                  0.0: .
(PID.TID 0000.0001) // RANGE I (Lo:Hi:Step):(    -2:    53:     1)
(PID.TID 0000.0001) // RANGE J (Lo:Hi:Step):(    29:    -2:    -1)
(PID.TID 0000.0001) // RANGE K (Lo:Hi:Step):(   1:   1:   1)
(PID.TID 0000.0001) // =======================================================
(PID.TID 0000.0001) // =======================================================
(PID.TID 0000.0001) // END OF FIELD                                          =
(PID.TID 0000.0001) // =======================================================
(PID.TID 0000.0001) 
(PID.TID 0000.0001) // =======================================================
(PID.TID 0000.0001) // Field hFacS at iteration          0
(PID.TID 0000.0001) // CMIN =          1.000000000000000E+00
(PID.TID 0000.0001) // CMAX =          1.000000000000000E+00
(PID.TID 0000.0001) // CINT =          0.000000000000000E+00
(PID.TID 0000.0001) // SYMBOLS (CMIN->CMAX): -abcdefghijklmnopqrstuvwxyz+
(PID.TID 0000.0001) //                  0.0: .
(PID.TID 0000.0001) // RANGE I (Lo:Hi:Step):(    -2:    53:     1)
(PID.TID 0000.0001) // RANGE J (Lo:Hi:Step):(    29:    -2:    -1)
(PID.TID 0000.0001) // RANGE K (Lo:Hi:Step):(   1:   1:   1)
(PID.TID 0000.0001) // =======================================================
(PID.TID 0000.0001) // =======================================================
(PID.TID 0000.0001) // END OF FIELD                                          =
(PID.TID 0000.0001) // =======================================================
(PID.TID 0000.0001) 
(PID.TID 0000.0001) GAD_INIT_FIXED: GAD_OlMinSize=  2  0  1
(PID.TID 0000.0001) 
(PID.TID 0000.0001) // ===================================
(PID.TID 0000.0001) // GAD parameters :
(PID.TID 0000.0001) // ===================================
(PID.TID 0000.0001) tempAdvScheme =   /* Temp. Horiz.Advection scheme selector */
(PID.TID 0000.0001)                      33
(PID.TID 0000.0001)     ;
(PID.TID 0000.0001) tempVertAdvScheme =   /* Temp. Vert. Advection scheme selector */
(PID.TID 0000.0001)                      33
(PID.TID 0000.0001)     ;
(PID.TID 0000.0001) tempMultiDimAdvec =   /* use Muti-Dim Advec method for Temp */
(PID.TID 0000.0001)                   T
(PID.TID 0000.0001)     ;
(PID.TID 0000.0001) tempSOM_Advection = /* use 2nd Order Moment Advection for Temp */
(PID.TID 0000.0001)                   F
(PID.TID 0000.0001)     ;
(PID.TID 0000.0001) AdamsBashforthGt = /* apply Adams-Bashforth extrapolation on Gt */
(PID.TID 0000.0001)                   F
(PID.TID 0000.0001)     ;
(PID.TID 0000.0001) AdamsBashforth_T = /* apply Adams-Bashforth extrapolation on Temp */
(PID.TID 0000.0001)                   F
(PID.TID 0000.0001)     ;
(PID.TID 0000.0001) saltAdvScheme =   /* Salt. Horiz.advection scheme selector */
(PID.TID 0000.0001)                      33
(PID.TID 0000.0001)     ;
(PID.TID 0000.0001) saltVertAdvScheme =   /* Salt. Vert. Advection scheme selector */
(PID.TID 0000.0001)                      33
(PID.TID 0000.0001)     ;
(PID.TID 0000.0001) saltMultiDimAdvec =   /* use Muti-Dim Advec method for Salt */
(PID.TID 0000.0001)                   T
(PID.TID 0000.0001)     ;
(PID.TID 0000.0001) saltSOM_Advection = /* use 2nd Order Moment Advection for Salt */
(PID.TID 0000.0001)                   F
(PID.TID 0000.0001)     ;
(PID.TID 0000.0001) AdamsBashforthGs = /* apply Adams-Bashforth extrapolation on Gs */
(PID.TID 0000.0001)                   F
(PID.TID 0000.0001)     ;
(PID.TID 0000.0001) AdamsBashforth_S = /* apply Adams-Bashforth extrapolation on Salt */
(PID.TID 0000.0001)                   F
(PID.TID 0000.0001)     ;
(PID.TID 0000.0001) // ===================================
(PID.TID 0000.0001) ------------------------------------------------------------
(PID.TID 0000.0001) DIAGNOSTICS_SET_LEVELS: done
(PID.TID 0000.0001)  Total Nb of available Diagnostics: ndiagt=   178
(PID.TID 0000.0001)  write list of available Diagnostics to file: available_diagnostics.log
(PID.TID 0000.0001) SETDIAG: Allocate 40 x  1 Levels for Diagnostic #   142 momKE
(PID.TID 0000.0001) SETDIAG: Allocate 40 x  1 Levels for Diagnostic #   143 momHDiv
(PID.TID 0000.0001) SETDIAG: Allocate 40 x  1 Levels for Diagnostic #   144 momVort3
(PID.TID 0000.0001) SETDIAG: Allocate 40 x  1 Levels for Diagnostic #   145 Strain
(PID.TID 0000.0001) SETDIAG: Allocate 40 x  1 Levels for Diagnostic #   146 Tension
(PID.TID 0000.0001) SETDIAG: Allocate 40 x  1 Levels for Diagnostic #   118 VISCAHD
(PID.TID 0000.0001) SETDIAG: Allocate 40 x  1 Levels for Diagnostic #   119 VISCA4D
(PID.TID 0000.0001) SETDIAG: Allocate 40 x  1 Levels for Diagnostic #   116 VISCAHZ
(PID.TID 0000.0001) SETDIAG: Allocate 40 x  1 Levels for Diagnostic #   117 VISCA4Z
(PID.TID 0000.0001) SETDIAG: Allocate 40 x  1 Levels for Diagnostic #   124 VAHDMAX
(PID.TID 0000.0001) SETDIAG: Allocate 40 x  1 Levels for Diagnostic #   125 VA4DMAX
(PID.TID 0000.0001) SETDIAG: Allocate 40 x  1 Levels for Diagnostic #   122 VAHZMAX
(PID.TID 0000.0001) SETDIAG: Allocate 40 x  1 Levels for Diagnostic #   123 VA4ZMAX
(PID.TID 0000.0001) SETDIAG: Allocate 40 x  1 Levels for Diagnostic #   128 VAHDMIN
(PID.TID 0000.0001) SETDIAG: Allocate 40 x  1 Levels for Diagnostic #   129 VA4DMIN
(PID.TID 0000.0001) SETDIAG: Allocate 40 x  1 Levels for Diagnostic #   126 VAHZMIN
(PID.TID 0000.0001) SETDIAG: Allocate 40 x  1 Levels for Diagnostic #   127 VA4ZMIN
(PID.TID 0000.0001) SETDIAG: Allocate 40 x  1 Levels for Diagnostic #   132 VAHDLTH
(PID.TID 0000.0001) SETDIAG: Allocate 40 x  1 Levels for Diagnostic #   133 VA4DLTH
(PID.TID 0000.0001) SETDIAG: Allocate 40 x  1 Levels for Diagnostic #   130 VAHZLTH
(PID.TID 0000.0001) SETDIAG: Allocate 40 x  1 Levels for Diagnostic #   131 VA4ZLTH
(PID.TID 0000.0001) SETDIAG: Allocate 40 x  1 Levels for Diagnostic #   136 VAHDLTHD
(PID.TID 0000.0001) SETDIAG: Allocate 40 x  1 Levels for Diagnostic #   137 VA4DLTHD
(PID.TID 0000.0001) SETDIAG: Allocate 40 x  1 Levels for Diagnostic #   134 VAHZLTHD
(PID.TID 0000.0001) SETDIAG: Allocate 40 x  1 Levels for Diagnostic #   135 VA4ZLTHD
(PID.TID 0000.0001) SETDIAG: Allocate 40 x  1 Levels for Diagnostic #   140 VAHDSMAG
(PID.TID 0000.0001) SETDIAG: Allocate 40 x  1 Levels for Diagnostic #   141 VA4DSMAG
(PID.TID 0000.0001) SETDIAG: Allocate 40 x  1 Levels for Diagnostic #   138 VAHZSMAG
(PID.TID 0000.0001) SETDIAG: Allocate 40 x  1 Levels for Diagnostic #   139 VA4ZSMAG
(PID.TID 0000.0001)   space allocated for all diagnostics:    1160 levels
(PID.TID 0000.0001) DIAGNOSTICS_SET_POINTERS: Set levels for Outp.Stream: momDiag
(PID.TID 0000.0001)  Levels:       1.   2.   3.   4.   5.   6.   7.   8.   9.  10.  11.  12.  13.  14.  15.  16.  17.  18.  19.  20.
(PID.TID 0000.0001)  Levels:      21.  22.  23.  24.  25.  26.  27.  28.  29.  30.  31.  32.  33.  34.  35.  36.  37.  38.  39.  40.
(PID.TID 0000.0001) DIAGNOSTICS_SET_POINTERS: Set levels for Outp.Stream: viscDiag
(PID.TID 0000.0001)  Levels:       1.   2.   3.   4.   5.   6.   7.   8.   9.  10.  11.  12.  13.  14.  15.  16.  17.  18.  19.  20.
(PID.TID 0000.0001)  Levels:      21.  22.  23.  24.  25.  26.  27.  28.  29.  30.  31.  32.  33.  34.  35.  36.  37.  38.  39.  40.
(PID.TID 0000.0001) DIAGNOSTICS_SET_POINTERS: done
(PID.TID 0000.0001) ------------------------------------------------------------
(PID.TID 0000.0001) DIAGSTATS_SET_REGIONS: define no region
(PID.TID 0000.0001) ------------------------------------------------------------
(PID.TID 0000.0001)   space allocated for all stats-diags:       0 levels
(PID.TID 0000.0001) DIAGSTATS_SET_POINTERS: done
(PID.TID 0000.0001) ------------------------------------------------------------
(PID.TID 0000.0001) %MON fCori_max                    =   7.2900000000000E-05
(PID.TID 0000.0001) %MON fCori_min                    =   7.2900000000000E-05
(PID.TID 0000.0001) %MON fCori_mean                   =   7.2900000000000E-05
(PID.TID 0000.0001) %MON fCori_sd                     =   4.7433845046241E-19
(PID.TID 0000.0001) %MON fCoriG_max                   =   7.2900000000000E-05
(PID.TID 0000.0001) %MON fCoriG_min                   =   7.2900000000000E-05
(PID.TID 0000.0001) %MON fCoriG_mean                  =   7.2900000000000E-05
(PID.TID 0000.0001) %MON fCoriG_sd                    =   4.7433845046241E-19
(PID.TID 0000.0001) %MON fCoriCos_max                 =   0.0000000000000E+00
(PID.TID 0000.0001) %MON fCoriCos_min                 =   0.0000000000000E+00
(PID.TID 0000.0001) %MON fCoriCos_mean                =   0.0000000000000E+00
(PID.TID 0000.0001) %MON fCoriCos_sd                  =   0.0000000000000E+00
(PID.TID 0000.0001) INI_CG2D: CG2D normalisation factor =  5.0000000000000001E-03
(PID.TID 0000.0001) 
(PID.TID 0000.0001) // =======================================================
(PID.TID 0000.0001) // Model configuration
(PID.TID 0000.0001) // =======================================================
(PID.TID 0000.0001) //
(PID.TID 0000.0001) // "Physical" paramters ( PARM01 in namelist )
(PID.TID 0000.0001) //
(PID.TID 0000.0001) buoyancyRelation = /* Type of relation to get Buoyancy */
(PID.TID 0000.0001)               'OCEANIC'
(PID.TID 0000.0001)     ;
(PID.TID 0000.0001) fluidIsAir   =  /* fluid major constituent is Air */
(PID.TID 0000.0001)                   F
(PID.TID 0000.0001)     ;
(PID.TID 0000.0001) fluidIsWater =  /* fluid major constituent is Water */
(PID.TID 0000.0001)                   T
(PID.TID 0000.0001)     ;
(PID.TID 0000.0001) usingPCoords =  /* use p (or p*) vertical coordinate */
(PID.TID 0000.0001)                   F
(PID.TID 0000.0001)     ;
(PID.TID 0000.0001) usingZCoords =  /* use z (or z*) vertical coordinate */
(PID.TID 0000.0001)                   T
(PID.TID 0000.0001)     ;
(PID.TID 0000.0001) tRef =   /* Reference temperature profile ( oC or K ) */
(PID.TID 0000.0001)    40 @  2.000000000000000E+01              /* K =  1: 40 */
(PID.TID 0000.0001)     ;
(PID.TID 0000.0001) sRef =   /* Reference salinity profile ( psu ) */
(PID.TID 0000.0001)    40 @  3.000000000000000E+01              /* K =  1: 40 */
(PID.TID 0000.0001)     ;
(PID.TID 0000.0001) viscAh  =   /* Lateral eddy viscosity ( m^2/s ) */
(PID.TID 0000.0001)                 0.000000000000000E+00
(PID.TID 0000.0001)     ;
(PID.TID 0000.0001) viscAhMax = /* Maximum lateral eddy viscosity ( m^2/s ) */
(PID.TID 0000.0001)                 1.000000000000000E+21
(PID.TID 0000.0001)     ;
(PID.TID 0000.0001) viscAhGrid = /* Grid dependent lateral eddy viscosity ( non-dim. ) */
(PID.TID 0000.0001)                 0.000000000000000E+00
(PID.TID 0000.0001)     ;
(PID.TID 0000.0001) useFullLeith = /* Use Full Form of Leith Viscosity on/off flag*/
(PID.TID 0000.0001)                   F
(PID.TID 0000.0001)     ;
(PID.TID 0000.0001) useStrainTensionVisc= /* Use StrainTension Form of Viscous Operator flag*/
(PID.TID 0000.0001)                   F
(PID.TID 0000.0001)     ;
(PID.TID 0000.0001) useAreaViscLength = /* Use area for visc length instead of geom. mean*/
(PID.TID 0000.0001)                   F
(PID.TID 0000.0001)     ;
(PID.TID 0000.0001) viscC2leith = /* Leith harmonic visc. factor (on grad(vort),non-dim.) */
(PID.TID 0000.0001)                 1.850000000000000E+00
(PID.TID 0000.0001)     ;
(PID.TID 0000.0001) viscC2leithD = /* Leith harmonic viscosity factor (on grad(div),non-dim.)*/
(PID.TID 0000.0001)                 1.850000000000000E+00
(PID.TID 0000.0001)     ;
(PID.TID 0000.0001) viscC2smag = /* Smagorinsky harmonic viscosity factor (non-dim.) */
(PID.TID 0000.0001)                 1.000000000000000E+00
(PID.TID 0000.0001)     ;
(PID.TID 0000.0001) viscA4  =   /* Lateral biharmonic viscosity ( m^4/s ) */
(PID.TID 0000.0001)                 0.000000000000000E+00
(PID.TID 0000.0001)     ;
(PID.TID 0000.0001) viscA4Max = /* Maximum biharmonic viscosity ( m^2/s ) */
(PID.TID 0000.0001)                 1.000000000000000E+21
(PID.TID 0000.0001)     ;
(PID.TID 0000.0001) viscA4Grid = /* Grid dependent biharmonic viscosity ( non-dim. ) */
(PID.TID 0000.0001)                 0.000000000000000E+00
(PID.TID 0000.0001)     ;
(PID.TID 0000.0001) viscC4leith = /* Leith biharm viscosity factor (on grad(vort), non-dim.)*/
(PID.TID 0000.0001)                 0.000000000000000E+00
(PID.TID 0000.0001)     ;
(PID.TID 0000.0001) viscC4leithD = /* Leith biharm viscosity factor (on grad(div), non-dim.) */
(PID.TID 0000.0001)                 0.000000000000000E+00
(PID.TID 0000.0001)     ;
(PID.TID 0000.0001) viscC4Smag = /* Smagorinsky biharm viscosity factor (non-dim) */
(PID.TID 0000.0001)                 0.000000000000000E+00
(PID.TID 0000.0001)     ;
(PID.TID 0000.0001) no_slip_sides =  /* Viscous BCs: No-slip sides */
(PID.TID 0000.0001)                   F
(PID.TID 0000.0001)     ;
(PID.TID 0000.0001) sideDragFactor = /* side-drag scaling factor (non-dim) */
(PID.TID 0000.0001)                 2.000000000000000E+00
(PID.TID 0000.0001)     ;
(PID.TID 0000.0001) viscArNr = /* vertical profile of vertical viscosity ( m^2/s )*/
(PID.TID 0000.0001)    40 @  5.000000000000000E-05              /* K =  1: 40 */
(PID.TID 0000.0001)     ;
(PID.TID 0000.0001) no_slip_bottom =  /* Viscous BCs: No-slip bottom */
(PID.TID 0000.0001)                   F
(PID.TID 0000.0001)     ;
(PID.TID 0000.0001) bottomDragLinear = /* linear bottom-drag coefficient ( m/s ) */
(PID.TID 0000.0001)                 0.000000000000000E+00
(PID.TID 0000.0001)     ;
(PID.TID 0000.0001) bottomDragQuadratic = /* quadratic bottom-drag coefficient (-) */
(PID.TID 0000.0001)                 0.000000000000000E+00
(PID.TID 0000.0001)     ;
(PID.TID 0000.0001) diffKhT =   /* Laplacian diffusion of heat laterally ( m^2/s ) */
(PID.TID 0000.0001)                 0.000000000000000E+00
(PID.TID 0000.0001)     ;
(PID.TID 0000.0001) diffK4T =   /* Biharmonic diffusion of heat laterally ( m^4/s ) */
(PID.TID 0000.0001)                 0.000000000000000E+00
(PID.TID 0000.0001)     ;
(PID.TID 0000.0001) diffKhS =   /* Laplacian diffusion of salt laterally ( m^2/s ) */
(PID.TID 0000.0001)                 0.000000000000000E+00
(PID.TID 0000.0001)     ;
(PID.TID 0000.0001) diffK4S =   /* Biharmonic diffusion of salt laterally ( m^4/s ) */
(PID.TID 0000.0001)                 0.000000000000000E+00
(PID.TID 0000.0001)     ;
(PID.TID 0000.0001) diffKrNrT = /* vertical profile of vertical diffusion of Temp ( m^2/s )*/
(PID.TID 0000.0001)    40 @  0.000000000000000E+00              /* K =  1: 40 */
(PID.TID 0000.0001)     ;
(PID.TID 0000.0001) diffKrNrS = /* vertical profile of vertical diffusion of Salt ( m^2/s )*/
(PID.TID 0000.0001)    40 @  0.000000000000000E+00              /* K =  1: 40 */
(PID.TID 0000.0001)     ;
(PID.TID 0000.0001) diffKrBL79surf = /* Surface diffusion for Bryan and Lewis 79 ( m^2/s ) */
(PID.TID 0000.0001)                 0.000000000000000E+00
(PID.TID 0000.0001)     ;
(PID.TID 0000.0001) diffKrBL79deep = /* Deep diffusion for Bryan and Lewis 1979 ( m^2/s ) */
(PID.TID 0000.0001)                 0.000000000000000E+00
(PID.TID 0000.0001)     ;
(PID.TID 0000.0001) diffKrBL79scl = /* Depth scale for Bryan and Lewis 1979 ( m ) */
(PID.TID 0000.0001)                 2.000000000000000E+02
(PID.TID 0000.0001)     ;
(PID.TID 0000.0001) diffKrBL79Ho = /* Turning depth for Bryan and Lewis 1979 ( m ) */
(PID.TID 0000.0001)                -2.000000000000000E+03
(PID.TID 0000.0001)     ;
(PID.TID 0000.0001) ivdc_kappa = /* Implicit Vertical Diffusivity for Convection ( m^2/s) */
(PID.TID 0000.0001)                 1.000000000000000E+01
(PID.TID 0000.0001)     ;
(PID.TID 0000.0001) hMixCriteria=  /* Criteria for mixed-layer diagnostic */
(PID.TID 0000.0001)                -8.000000000000000E-01
(PID.TID 0000.0001)     ;
(PID.TID 0000.0001) dRhoSmall =  /* Parameter for mixed-layer diagnostic */
(PID.TID 0000.0001)                 1.000000000000000E-06
(PID.TID 0000.0001)     ;
(PID.TID 0000.0001) hMixSmooth=  /* Smoothing parameter for mixed-layer diagnostic */
(PID.TID 0000.0001)                 0.000000000000000E+00
(PID.TID 0000.0001)     ;
(PID.TID 0000.0001) eosType =  /* Type of Equation of State */
(PID.TID 0000.0001)               'LINEAR'
(PID.TID 0000.0001)     ;
(PID.TID 0000.0001) tAlpha =   /* Linear EOS thermal expansion coefficient ( 1/oC ) */
(PID.TID 0000.0001)                 2.000000000000000E-04
(PID.TID 0000.0001)     ;
(PID.TID 0000.0001) sBeta =   /* Linear EOS haline contraction coefficient ( 1/psu ) */
(PID.TID 0000.0001)                 0.000000000000000E+00
(PID.TID 0000.0001)     ;
(PID.TID 0000.0001) rhonil =   /* Reference density ( kg/m^3 ) */
(PID.TID 0000.0001)                 1.035000000000000E+03
(PID.TID 0000.0001)     ;
(PID.TID 0000.0001) rhoConst =   /* Reference density ( kg/m^3 ) */
(PID.TID 0000.0001)                 1.035000000000000E+03
(PID.TID 0000.0001)     ;
(PID.TID 0000.0001) rhoFacC = /* normalized Reference density @ cell-Center (-) */
(PID.TID 0000.0001)    40 @  1.000000000000000E+00              /* K =  1: 40 */
(PID.TID 0000.0001)     ;
(PID.TID 0000.0001) rhoFacF = /* normalized Reference density @ W-Interface (-) */
(PID.TID 0000.0001)    41 @  1.000000000000000E+00              /* K =  1: 41 */
(PID.TID 0000.0001)     ;
(PID.TID 0000.0001) rhoConstFresh =   /* Reference density ( kg/m^3 ) */
(PID.TID 0000.0001)                 1.035000000000000E+03
(PID.TID 0000.0001)     ;
(PID.TID 0000.0001) gravity =   /* Gravitational acceleration ( m/s^2 ) */
(PID.TID 0000.0001)                 9.810000000000000E+00
(PID.TID 0000.0001)     ;
(PID.TID 0000.0001) gBaro =   /* Barotropic gravity ( m/s^2 ) */
(PID.TID 0000.0001)                 9.810000000000000E+00
(PID.TID 0000.0001)     ;
(PID.TID 0000.0001) rotationPeriod =   /* Rotation Period ( s ) */
(PID.TID 0000.0001)                 8.616400000000000E+04
(PID.TID 0000.0001)     ;
(PID.TID 0000.0001) omega =   /* Angular velocity ( rad/s ) */
(PID.TID 0000.0001)                 7.292123516990375E-05
(PID.TID 0000.0001)     ;
(PID.TID 0000.0001) f0 =   /* Reference coriolis parameter ( 1/s ) */
(PID.TID 0000.0001)                 7.290000000000000E-05
(PID.TID 0000.0001)     ;
(PID.TID 0000.0001) beta =   /* Beta ( 1/(m.s) ) */
(PID.TID 0000.0001)                 0.000000000000000E+00
(PID.TID 0000.0001)     ;
(PID.TID 0000.0001) fPrime =   /* Second coriolis parameter ( 1/s ) */
(PID.TID 0000.0001)                 0.000000000000000E+00
(PID.TID 0000.0001)     ;
(PID.TID 0000.0001) rigidLid =   /* Rigid lid on/off flag */
(PID.TID 0000.0001)                   F
(PID.TID 0000.0001)     ;
(PID.TID 0000.0001) implicitFreeSurface =   /* Implicit free surface on/off flag */
(PID.TID 0000.0001)                   T
(PID.TID 0000.0001)     ;
(PID.TID 0000.0001) freeSurfFac =   /* Implicit free surface factor */
(PID.TID 0000.0001)                 1.000000000000000E+00
(PID.TID 0000.0001)     ;
(PID.TID 0000.0001) implicSurfPress =  /* Surface Pressure implicit factor (0-1)*/
(PID.TID 0000.0001)                 1.000000000000000E+00
(PID.TID 0000.0001)     ;
(PID.TID 0000.0001) implicDiv2Dflow =  /* Barot. Flow Div. implicit factor (0-1)*/
(PID.TID 0000.0001)                 1.000000000000000E+00
(PID.TID 0000.0001)     ;
(PID.TID 0000.0001) exactConserv =  /* Exact Volume Conservation on/off flag*/
(PID.TID 0000.0001)                   F
(PID.TID 0000.0001)     ;
(PID.TID 0000.0001) linFSConserveTr = /* Tracer correction for Lin Free Surface on/off flag*/
(PID.TID 0000.0001)                   F
(PID.TID 0000.0001)     ;
(PID.TID 0000.0001) uniformLin_PhiSurf = /* use uniform Bo_surf on/off flag*/
(PID.TID 0000.0001)                   T
(PID.TID 0000.0001)     ;
(PID.TID 0000.0001) hFacMin =   /* minimum partial cell factor (hFac) */
(PID.TID 0000.0001)                 1.000000000000000E+00
(PID.TID 0000.0001)     ;
(PID.TID 0000.0001) hFacMinDr = /* minimum partial cell thickness ( m) */
(PID.TID 0000.0001)                 1.000000000000000E+00
(PID.TID 0000.0001)     ;
(PID.TID 0000.0001) nonlinFreeSurf = /* Non-linear Free Surf. options (-1,0,1,2,3)*/
(PID.TID 0000.0001)                       0
(PID.TID 0000.0001)      -1,0= Off ; 1,2,3= On, 2=+rescale gU,gV, 3=+update cg2d solv.
(PID.TID 0000.0001)     ;
(PID.TID 0000.0001) hFacInf =   /* lower threshold for hFac (nonlinFreeSurf only)*/
(PID.TID 0000.0001)                 2.000000000000000E-01
(PID.TID 0000.0001)     ;
(PID.TID 0000.0001) hFacSup =   /* upper threshold for hFac (nonlinFreeSurf only)*/
(PID.TID 0000.0001)                 2.000000000000000E+00
(PID.TID 0000.0001)     ;
(PID.TID 0000.0001) select_rStar = /* r* Vertical coord. options (=0 r coord.; >0 uses r*)*/
(PID.TID 0000.0001)                       0
(PID.TID 0000.0001)     ;
(PID.TID 0000.0001) selectAddFluid = /* option for mass source/sink of fluid (=0: off) */
(PID.TID 0000.0001)                       0
(PID.TID 0000.0001)     ;
(PID.TID 0000.0001) useRealFreshWaterFlux = /* Real Fresh Water Flux on/off flag*/
(PID.TID 0000.0001)                   F
(PID.TID 0000.0001)     ;
(PID.TID 0000.0001) temp_EvPrRn = /* Temp. of Evap/Prec/R (UNSET=use local T)(oC)*/
(PID.TID 0000.0001)                 1.234567000000000E+05
(PID.TID 0000.0001)     ;
(PID.TID 0000.0001) salt_EvPrRn = /* Salin. of Evap/Prec/R (UNSET=use local S)(psu)*/
(PID.TID 0000.0001)                 0.000000000000000E+00
(PID.TID 0000.0001)     ;
(PID.TID 0000.0001) temp_addMass = /* Temp. of addMass array (UNSET=use local T)(oC)*/
(PID.TID 0000.0001)                 1.234567000000000E+05
(PID.TID 0000.0001)     ;
(PID.TID 0000.0001) salt_addMass = /* Salin. of addMass array (UNSET=use local S)(psu)*/
(PID.TID 0000.0001)                 0.000000000000000E+00
(PID.TID 0000.0001)     ;
(PID.TID 0000.0001) convertFW2Salt = /* convert F.W. Flux to Salt Flux (-1=use local S)(psu)*/
(PID.TID 0000.0001)                 3.500000000000000E+01
(PID.TID 0000.0001)     ;
(PID.TID 0000.0001) use3Dsolver = /* use 3-D pressure solver on/off flag */
(PID.TID 0000.0001)                   F
(PID.TID 0000.0001)     ;
(PID.TID 0000.0001) nonHydrostatic =  /* Non-Hydrostatic on/off flag */
(PID.TID 0000.0001)                   F
(PID.TID 0000.0001)     ;
(PID.TID 0000.0001) nh_Am2 = /* Non-Hydrostatic terms scaling factor */
(PID.TID 0000.0001)                 1.000000000000000E+00
(PID.TID 0000.0001)     ;
(PID.TID 0000.0001) implicitNHPress = /* Non-Hyd Pressure implicit factor (0-1)*/
(PID.TID 0000.0001)                 1.000000000000000E+00
(PID.TID 0000.0001)     ;
(PID.TID 0000.0001) selectNHfreeSurf = /* Non-Hyd (free-)Surface option */
(PID.TID 0000.0001)                       0
(PID.TID 0000.0001)     ;
(PID.TID 0000.0001) quasiHydrostatic = /* Quasi-Hydrostatic on/off flag */
(PID.TID 0000.0001)                   F
(PID.TID 0000.0001)     ;
(PID.TID 0000.0001) momStepping =  /* Momentum equation on/off flag */
(PID.TID 0000.0001)                   T
(PID.TID 0000.0001)     ;
(PID.TID 0000.0001) vectorInvariantMomentum= /* Vector-Invariant Momentum on/off */
(PID.TID 0000.0001)                   T
(PID.TID 0000.0001)     ;
(PID.TID 0000.0001) momAdvection =  /* Momentum advection on/off flag */
(PID.TID 0000.0001)                   T
(PID.TID 0000.0001)     ;
(PID.TID 0000.0001) momViscosity =  /* Momentum viscosity on/off flag */
(PID.TID 0000.0001)                   T
(PID.TID 0000.0001)     ;
(PID.TID 0000.0001) momImplVertAdv= /* Momentum implicit vert. advection on/off*/
(PID.TID 0000.0001)                   F
(PID.TID 0000.0001)     ;
(PID.TID 0000.0001) implicitViscosity = /* Implicit viscosity on/off flag */
(PID.TID 0000.0001)                   T
(PID.TID 0000.0001)     ;
(PID.TID 0000.0001) metricTerms =  /* metric-Terms on/off flag */
(PID.TID 0000.0001)                   F
(PID.TID 0000.0001)     ;
(PID.TID 0000.0001) useNHMTerms = /* Non-Hydrostatic Metric-Terms on/off */
(PID.TID 0000.0001)                   F
(PID.TID 0000.0001)     ;
(PID.TID 0000.0001) selectCoriMap = /* Coriolis Map options (0,1,2,3)*/
(PID.TID 0000.0001)                       1
(PID.TID 0000.0001)     0= f-Plane ; 1= Beta-Plane ; 2= Spherical ; 3= read from file
(PID.TID 0000.0001)     ;
(PID.TID 0000.0001) use3dCoriolis = /* 3-D Coriolis on/off flag */
(PID.TID 0000.0001)                   F
(PID.TID 0000.0001)     ;
(PID.TID 0000.0001) useCoriolis =  /* Coriolis on/off flag */
(PID.TID 0000.0001)                   T
(PID.TID 0000.0001)     ;
(PID.TID 0000.0001) useCDscheme =  /* CD scheme on/off flag */
(PID.TID 0000.0001)                   F
(PID.TID 0000.0001)     ;
(PID.TID 0000.0001) useEnergyConservingCoriolis= /* Flx-Form Coriolis scheme flag */
(PID.TID 0000.0001)                   F
(PID.TID 0000.0001)     ;
(PID.TID 0000.0001) useJamartWetPoints= /* Coriolis WetPoints method flag */
(PID.TID 0000.0001)                   T
(PID.TID 0000.0001)     ;
(PID.TID 0000.0001) useJamartMomAdv= /* V.I Non-linear terms Jamart flag */
(PID.TID 0000.0001)                   F
(PID.TID 0000.0001)     ;
(PID.TID 0000.0001) useAbsVorticity= /* V.I Works with f+zeta in Coriolis */
(PID.TID 0000.0001)                   F
(PID.TID 0000.0001)     ;
(PID.TID 0000.0001) selectVortScheme= /* V.I Scheme selector for Vorticity-Term */
(PID.TID 0000.0001)                       1
(PID.TID 0000.0001)    = 0 : enstrophy (Shallow-Water Eq.) conserving scheme by Sadourny, JAS 75
(PID.TID 0000.0001)    = 1 : same as 0 with modified hFac
(PID.TID 0000.0001)    = 2 : energy conserving scheme (used by Sadourny in JAS 75 paper)
(PID.TID 0000.0001)    = 3 : energy (general) and enstrophy (2D, nonDiv.) conserving scheme
(PID.TID 0000.0001)          from Sadourny (Burridge & Haseler, ECMWF Rep.4, 1977)
(PID.TID 0000.0001)     ;
(PID.TID 0000.0001) upwindVorticity= /* V.I Upwind bias vorticity flag */
(PID.TID 0000.0001)                   F
(PID.TID 0000.0001)     ;
(PID.TID 0000.0001) highOrderVorticity= /* V.I High order vort. advect. flag */
(PID.TID 0000.0001)                   F
(PID.TID 0000.0001)     ;
(PID.TID 0000.0001) upwindShear= /* V.I Upwind vertical Shear advection flag */
(PID.TID 0000.0001)                   F
(PID.TID 0000.0001)     ;
(PID.TID 0000.0001) selectKEscheme= /* V.I Kinetic Energy scheme selector */
(PID.TID 0000.0001)                       0
(PID.TID 0000.0001)     ;
(PID.TID 0000.0001) momForcing =  /* Momentum forcing on/off flag */
(PID.TID 0000.0001)                   T
(PID.TID 0000.0001)     ;
(PID.TID 0000.0001) momPressureForcing =  /* Momentum pressure term on/off flag */
(PID.TID 0000.0001)                   T
(PID.TID 0000.0001)     ;
(PID.TID 0000.0001) implicitIntGravWave= /* Implicit Internal Gravity Wave flag */
(PID.TID 0000.0001)                   F
(PID.TID 0000.0001)     ;
(PID.TID 0000.0001) staggerTimeStep =   /* Stagger time stepping on/off flag */
(PID.TID 0000.0001)                   T
(PID.TID 0000.0001)     ;
(PID.TID 0000.0001) multiDimAdvection =   /* enable/disable Multi-Dim Advection */
(PID.TID 0000.0001)                   T
(PID.TID 0000.0001)     ;
(PID.TID 0000.0001) useMultiDimAdvec =   /* Multi-Dim Advection is/is-not used */
(PID.TID 0000.0001)                   T
(PID.TID 0000.0001)     ;
(PID.TID 0000.0001) implicitDiffusion = /* Implicit Diffusion on/off flag */
(PID.TID 0000.0001)                   T
(PID.TID 0000.0001)     ;
(PID.TID 0000.0001) tempStepping =  /* Temperature equation on/off flag */
(PID.TID 0000.0001)                   T
(PID.TID 0000.0001)     ;
(PID.TID 0000.0001) tempAdvection=  /* Temperature advection on/off flag */
(PID.TID 0000.0001)                   T
(PID.TID 0000.0001)     ;
(PID.TID 0000.0001) tempImplVertAdv = /* Temp. implicit vert. advection on/off */
(PID.TID 0000.0001)                   F
(PID.TID 0000.0001)     ;
(PID.TID 0000.0001) tempForcing  =  /* Temperature forcing on/off flag */
(PID.TID 0000.0001)                   T
(PID.TID 0000.0001)     ;
(PID.TID 0000.0001) tempIsActiveTr = /* Temp. is a dynamically Active Tracer */
(PID.TID 0000.0001)                   T
(PID.TID 0000.0001)     ;
(PID.TID 0000.0001) saltStepping =  /* Salinity equation on/off flag */
(PID.TID 0000.0001)                   T
(PID.TID 0000.0001)     ;
(PID.TID 0000.0001) saltAdvection=  /* Salinity advection on/off flag */
(PID.TID 0000.0001)                   T
(PID.TID 0000.0001)     ;
(PID.TID 0000.0001) saltImplVertAdv = /* Sali. implicit vert. advection on/off */
(PID.TID 0000.0001)                   F
(PID.TID 0000.0001)     ;
(PID.TID 0000.0001) saltForcing  =  /* Salinity forcing on/off flag */
(PID.TID 0000.0001)                   T
(PID.TID 0000.0001)     ;
(PID.TID 0000.0001) saltIsActiveTr = /* Salt  is a dynamically Active Tracer */
(PID.TID 0000.0001)                   F
(PID.TID 0000.0001)     ;
(PID.TID 0000.0001)  readBinaryPrec = /* Precision used for reading binary files */
(PID.TID 0000.0001)                      64
(PID.TID 0000.0001)     ;
(PID.TID 0000.0001) writeBinaryPrec = /* Precision used for writing binary files */
(PID.TID 0000.0001)                      64
(PID.TID 0000.0001)     ;
(PID.TID 0000.0001)  globalFiles = /* write "global" (=not per tile) files */
(PID.TID 0000.0001)                   F
(PID.TID 0000.0001)     ;
(PID.TID 0000.0001)  useSingleCpuIO = /* only master MPI process does I/O */
(PID.TID 0000.0001)                   F
(PID.TID 0000.0001)     ;
(PID.TID 0000.0001) /* debLev[*]  : level of debug & auxiliary message printing */
(PID.TID 0000.0001) debLevZero =  0 ; /* level of disabled aux. msg printing */
(PID.TID 0000.0001)    debLevA =  1 ; /* level of minimum  aux. msg printing */
(PID.TID 0000.0001)    debLevB =  2 ; /* level of low aux. print (report read-file opening)*/
(PID.TID 0000.0001)    debLevC =  3 ; /* level of moderate debug prt (most pkgs debug msg) */
(PID.TID 0000.0001)    debLevD =  4 ; /* level of enhanced debug prt (add DEBUG_STATS prt) */
(PID.TID 0000.0001)    debLevE =  5 ; /* level of extensive debug printing */
(PID.TID 0000.0001) debugLevel =  /* select debug printing level */
(PID.TID 0000.0001)                       2
(PID.TID 0000.0001)     ;
(PID.TID 0000.0001) //
(PID.TID 0000.0001) // Elliptic solver(s) paramters ( PARM02 in namelist )
(PID.TID 0000.0001) //
(PID.TID 0000.0001) cg2dMaxIters =   /* Upper limit on 2d con. grad iterations  */
(PID.TID 0000.0001)                    1000
(PID.TID 0000.0001)     ;
(PID.TID 0000.0001) cg2dChkResFreq =   /* 2d con. grad convergence test frequency */
(PID.TID 0000.0001)                       1
(PID.TID 0000.0001)     ;
(PID.TID 0000.0001) cg2dTargetResidual =   /* 2d con. grad target residual  */
(PID.TID 0000.0001)                 9.999999999999999E-12
(PID.TID 0000.0001)     ;
(PID.TID 0000.0001) cg2dTargetResWunit =   /* CG2d target residual [W units] */
(PID.TID 0000.0001)                -1.000000000000000E+00
(PID.TID 0000.0001)     ;
(PID.TID 0000.0001) cg2dPreCondFreq =   /* Freq. for updating cg2d preconditioner */
(PID.TID 0000.0001)                       1
(PID.TID 0000.0001)     ;
(PID.TID 0000.0001) useSRCGSolver =  /* use single reduction CG solver(s) */
(PID.TID 0000.0001)                   F
(PID.TID 0000.0001)     ;
(PID.TID 0000.0001) printResidualFreq = /* Freq. for printing CG residual */
(PID.TID 0000.0001)                       0
(PID.TID 0000.0001)     ;
(PID.TID 0000.0001) //
(PID.TID 0000.0001) // Time stepping paramters ( PARM03 in namelist )
(PID.TID 0000.0001) //
(PID.TID 0000.0001) deltaTmom =   /* Momentum equation timestep ( s ) */
(PID.TID 0000.0001)                 1.200000000000000E+03
(PID.TID 0000.0001)     ;
(PID.TID 0000.0001) deltaTfreesurf = /* FreeSurface equation timestep ( s ) */
(PID.TID 0000.0001)                 1.200000000000000E+03
(PID.TID 0000.0001)     ;
(PID.TID 0000.0001) dTtracerLev =  /* Tracer equation timestep ( s ) */
(PID.TID 0000.0001)    40 @  1.200000000000000E+03              /* K =  1: 40 */
(PID.TID 0000.0001)     ;
(PID.TID 0000.0001) deltaTClock  =   /* Model clock timestep ( s ) */
(PID.TID 0000.0001)                 1.200000000000000E+03
(PID.TID 0000.0001)     ;
(PID.TID 0000.0001) cAdjFreq =   /* Convective adjustment interval ( s ) */
(PID.TID 0000.0001)                 0.000000000000000E+00
(PID.TID 0000.0001)     ;
(PID.TID 0000.0001) momForcingOutAB = /* =1: take Momentum Forcing out of Adams-Bash. stepping */
(PID.TID 0000.0001)                       0
(PID.TID 0000.0001)     ;
(PID.TID 0000.0001) tracForcingOutAB = /* =1: take T,S,pTr Forcing out of Adams-Bash. stepping */
(PID.TID 0000.0001)                       0
(PID.TID 0000.0001)     ;
(PID.TID 0000.0001) momDissip_In_AB = /* put Dissipation Tendency in Adams-Bash. stepping */
(PID.TID 0000.0001)                   T
(PID.TID 0000.0001)     ;
(PID.TID 0000.0001) doAB_onGtGs = /* apply AB on Tendencies (rather than on T,S)*/
(PID.TID 0000.0001)                   T
(PID.TID 0000.0001)     ;
(PID.TID 0000.0001) abEps =   /* Adams-Bashforth-2 stabilizing weight */
(PID.TID 0000.0001)                 1.000000000000000E-02
(PID.TID 0000.0001)     ;
(PID.TID 0000.0001) pickupStrictlyMatch= /* stop if pickup do not strictly match */
(PID.TID 0000.0001)                   T
(PID.TID 0000.0001)     ;
(PID.TID 0000.0001) nIter0   =   /* Run starting timestep number */
(PID.TID 0000.0001)                       0
(PID.TID 0000.0001)     ;
(PID.TID 0000.0001) nTimeSteps = /* Number of timesteps */
(PID.TID 0000.0001)                      12
(PID.TID 0000.0001)     ;
(PID.TID 0000.0001) nEndIter =   /* Run ending timestep number */
(PID.TID 0000.0001)                      12
(PID.TID 0000.0001)     ;
(PID.TID 0000.0001) baseTime =   /* Model base time ( s ) */
(PID.TID 0000.0001)                 0.000000000000000E+00
(PID.TID 0000.0001)     ;
(PID.TID 0000.0001) startTime =  /* Run start time ( s ) */
(PID.TID 0000.0001)                 0.000000000000000E+00
(PID.TID 0000.0001)     ;
(PID.TID 0000.0001) endTime  =   /* Integration ending time ( s ) */
(PID.TID 0000.0001)                 1.440000000000000E+04
(PID.TID 0000.0001)     ;
(PID.TID 0000.0001) pChkPtFreq = /* Permanent restart/pickup file interval ( s ) */
(PID.TID 0000.0001)                 0.000000000000000E+00
(PID.TID 0000.0001)     ;
(PID.TID 0000.0001) chkPtFreq  = /* Rolling restart/pickup file interval ( s ) */
(PID.TID 0000.0001)                 0.000000000000000E+00
(PID.TID 0000.0001)     ;
(PID.TID 0000.0001) pickup_write_mdsio =   /* Model IO flag. */
(PID.TID 0000.0001)                   T
(PID.TID 0000.0001)     ;
(PID.TID 0000.0001) pickup_read_mdsio =   /* Model IO flag. */
(PID.TID 0000.0001)                   T
(PID.TID 0000.0001)     ;
(PID.TID 0000.0001) pickup_write_mnc =   /* Model IO flag. */
(PID.TID 0000.0001)                   F
(PID.TID 0000.0001)     ;
(PID.TID 0000.0001) pickup_read_mnc =   /* Model IO flag. */
(PID.TID 0000.0001)                   F
(PID.TID 0000.0001)     ;
(PID.TID 0000.0001) pickup_write_immed =   /* Model IO flag. */
(PID.TID 0000.0001)                   F
(PID.TID 0000.0001)     ;
(PID.TID 0000.0001) writePickupAtEnd =   /* Model IO flag. */
(PID.TID 0000.0001)                   T
(PID.TID 0000.0001)     ;
(PID.TID 0000.0001) dumpFreq =   /* Model state write out interval ( s ). */
(PID.TID 0000.0001)                 0.000000000000000E+00
(PID.TID 0000.0001)     ;
(PID.TID 0000.0001) dumpInitAndLast= /* write out Initial & Last iter. model state */
(PID.TID 0000.0001)                   T
(PID.TID 0000.0001)     ;
(PID.TID 0000.0001) snapshot_mdsio =   /* Model IO flag. */
(PID.TID 0000.0001)                   F
(PID.TID 0000.0001)     ;
(PID.TID 0000.0001) snapshot_mnc =   /* Model IO flag. */
(PID.TID 0000.0001)                   T
(PID.TID 0000.0001)     ;
(PID.TID 0000.0001) monitorFreq =   /* Monitor output interval ( s ). */
(PID.TID 0000.0001)                 1.200000000000000E+03
(PID.TID 0000.0001)     ;
(PID.TID 0000.0001) monitorSelect = /* select group of variables to monitor */
(PID.TID 0000.0001)                       2
(PID.TID 0000.0001)     ;
(PID.TID 0000.0001) monitor_stdio =   /* Model IO flag. */
(PID.TID 0000.0001)                   T
(PID.TID 0000.0001)     ;
(PID.TID 0000.0001) monitor_mnc =   /* Model IO flag. */
(PID.TID 0000.0001)                   F
(PID.TID 0000.0001)     ;
(PID.TID 0000.0001) externForcingPeriod =   /* forcing period (s) */
(PID.TID 0000.0001)                 0.000000000000000E+00
(PID.TID 0000.0001)     ;
(PID.TID 0000.0001) externForcingCycle =   /* period of the cyle (s). */
(PID.TID 0000.0001)                 0.000000000000000E+00
(PID.TID 0000.0001)     ;
(PID.TID 0000.0001) tauThetaClimRelax =   /* relaxation time scale (s) */
(PID.TID 0000.0001)                 0.000000000000000E+00
(PID.TID 0000.0001)     ;
(PID.TID 0000.0001) tauSaltClimRelax =   /* relaxation time scale (s) */
(PID.TID 0000.0001)                 0.000000000000000E+00
(PID.TID 0000.0001)     ;
(PID.TID 0000.0001) latBandClimRelax =   /* max. Lat. where relaxation */
(PID.TID 0000.0001)                 7.800000000000000E+04
(PID.TID 0000.0001)     ;
(PID.TID 0000.0001) //
(PID.TID 0000.0001) // Gridding paramters ( PARM04 in namelist )
(PID.TID 0000.0001) //
(PID.TID 0000.0001) usingCartesianGrid = /* Cartesian coordinates flag ( True/False ) */
(PID.TID 0000.0001)                   T
(PID.TID 0000.0001)     ;
(PID.TID 0000.0001) usingCylindricalGrid = /* Cylindrical coordinates flag ( True/False ) */
(PID.TID 0000.0001)                   F
(PID.TID 0000.0001)     ;
(PID.TID 0000.0001) usingSphericalPolarGrid = /* Spherical coordinates flag ( True/False ) */
(PID.TID 0000.0001)                   F
(PID.TID 0000.0001)     ;
(PID.TID 0000.0001) usingCurvilinearGrid = /* Curvilinear coordinates flag ( True/False ) */
(PID.TID 0000.0001)                   F
(PID.TID 0000.0001)     ;
(PID.TID 0000.0001) selectSigmaCoord = /* Hybrid-Sigma Vert. Coordinate option */
(PID.TID 0000.0001)                       0
(PID.TID 0000.0001)     ;
(PID.TID 0000.0001) Ro_SeaLevel = /* r(1) ( units of r ==  m ) */
(PID.TID 0000.0001)                 0.000000000000000E+00
(PID.TID 0000.0001)     ;
(PID.TID 0000.0001) rSigmaBnd = /* r/sigma transition ( units of r ==  m ) */
(PID.TID 0000.0001)                 1.234567000000000E+05
(PID.TID 0000.0001)     ;
(PID.TID 0000.0001) rkSign =   /* index orientation relative to vertical coordinate */
(PID.TID 0000.0001)                -1.000000000000000E+00
(PID.TID 0000.0001)     ;
(PID.TID 0000.0001) gravitySign = /* gravity orientation relative to vertical coordinate */
(PID.TID 0000.0001)                -1.000000000000000E+00
(PID.TID 0000.0001)     ;
(PID.TID 0000.0001) mass2rUnit = /* convert mass per unit area [kg/m2] to r-units [m] */
(PID.TID 0000.0001)                 9.661835748792270E-04
(PID.TID 0000.0001)     ;
(PID.TID 0000.0001) rUnit2mass = /* convert r-units [m] to mass per unit area [kg/m2] */
(PID.TID 0000.0001)                 1.035000000000000E+03
(PID.TID 0000.0001)     ;
(PID.TID 0000.0001) drC =   /* C spacing ( units of r ) */
(PID.TID 0000.0001)                 2.500000000000000E+00,      /* K =  1 */
(PID.TID 0000.0001)    39 @  5.000000000000000E+00              /* K =  2: 40 */
(PID.TID 0000.0001)     ;
(PID.TID 0000.0001) drF =   /* W spacing ( units of r ) */
(PID.TID 0000.0001)    40 @  5.000000000000000E+00              /* K =  1: 40 */
(PID.TID 0000.0001)     ;
(PID.TID 0000.0001) delX = /* U spacing ( m - cartesian, degrees - spherical ) */
(PID.TID 0000.0001)    50 @  1.000000000000000E+03              /* I =  1: 50 */
(PID.TID 0000.0001)     ;
(PID.TID 0000.0001) delY = /* V spacing ( m - cartesian, degrees - spherical ) */
(PID.TID 0000.0001)    26 @  1.000000000000000E+03              /* J =  1: 26 */
(PID.TID 0000.0001)     ;
(PID.TID 0000.0001) xgOrigin = /* X-axis origin of West  edge (cartesian: m, lat-lon: deg.) */
(PID.TID 0000.0001)                 0.000000000000000E+00
(PID.TID 0000.0001)     ;
(PID.TID 0000.0001) ygOrigin = /* Y-axis origin of South edge (cartesian: m, lat-lon: deg.) */
(PID.TID 0000.0001)                 0.000000000000000E+00
(PID.TID 0000.0001)     ;
(PID.TID 0000.0001) rSphere =  /* Radius ( ignored - cartesian, m - spherical ) */
(PID.TID 0000.0001)                 6.370000000000000E+06
(PID.TID 0000.0001)     ;
(PID.TID 0000.0001) deepAtmosphere = /* Deep/Shallow Atmosphere flag (True/False) */
(PID.TID 0000.0001)                   F
(PID.TID 0000.0001)     ;
(PID.TID 0000.0001) xC =  /* xC(:,1,:,1) : P-point X coord ( deg. or m if cartesian) */
(PID.TID 0000.0001)                 5.000000000000000E+02,      /* I =  1 */
(PID.TID 0000.0001)                 1.500000000000000E+03,      /* I =  2 */
(PID.TID 0000.0001)                 2.500000000000000E+03,      /* I =  3 */
(PID.TID 0000.0001)                 3.500000000000000E+03,      /* I =  4 */
(PID.TID 0000.0001)                 4.500000000000000E+03,      /* I =  5 */
(PID.TID 0000.0001)                 5.500000000000000E+03,      /* I =  6 */
(PID.TID 0000.0001)                 6.500000000000000E+03,      /* I =  7 */
(PID.TID 0000.0001)                 7.500000000000000E+03,      /* I =  8 */
(PID.TID 0000.0001)                 8.500000000000000E+03,      /* I =  9 */
(PID.TID 0000.0001)                 9.500000000000000E+03,      /* I = 10 */
(PID.TID 0000.0001)                 1.050000000000000E+04,      /* I = 11 */
(PID.TID 0000.0001)                 1.150000000000000E+04,      /* I = 12 */
(PID.TID 0000.0001)                 1.250000000000000E+04,      /* I = 13 */
(PID.TID 0000.0001)                 1.350000000000000E+04,      /* I = 14 */
(PID.TID 0000.0001)                 1.450000000000000E+04,      /* I = 15 */
(PID.TID 0000.0001)                 1.550000000000000E+04,      /* I = 16 */
(PID.TID 0000.0001)                 1.650000000000000E+04,      /* I = 17 */
(PID.TID 0000.0001)                 1.750000000000000E+04,      /* I = 18 */
(PID.TID 0000.0001)                 1.850000000000000E+04,      /* I = 19 */
(PID.TID 0000.0001)                 1.950000000000000E+04,      /* I = 20 */
(PID.TID 0000.0001)                 2.050000000000000E+04,      /* I = 21 */
(PID.TID 0000.0001)                 2.150000000000000E+04,      /* I = 22 */
(PID.TID 0000.0001)                 2.250000000000000E+04,      /* I = 23 */
(PID.TID 0000.0001)                 2.350000000000000E+04,      /* I = 24 */
(PID.TID 0000.0001)                 2.450000000000000E+04,      /* I = 25 */
(PID.TID 0000.0001)                 2.550000000000000E+04,      /* I = 26 */
(PID.TID 0000.0001)                 2.650000000000000E+04,      /* I = 27 */
(PID.TID 0000.0001)                 2.750000000000000E+04,      /* I = 28 */
(PID.TID 0000.0001)                 2.850000000000000E+04,      /* I = 29 */
(PID.TID 0000.0001)                 2.950000000000000E+04,      /* I = 30 */
(PID.TID 0000.0001)                 3.050000000000000E+04,      /* I = 31 */
(PID.TID 0000.0001)                 3.150000000000000E+04,      /* I = 32 */
(PID.TID 0000.0001)                 3.250000000000000E+04,      /* I = 33 */
(PID.TID 0000.0001)                 3.350000000000000E+04,      /* I = 34 */
(PID.TID 0000.0001)                 3.450000000000000E+04,      /* I = 35 */
(PID.TID 0000.0001)                 3.550000000000000E+04,      /* I = 36 */
(PID.TID 0000.0001)                 3.650000000000000E+04,      /* I = 37 */
(PID.TID 0000.0001)                 3.750000000000000E+04,      /* I = 38 */
(PID.TID 0000.0001)                 3.850000000000000E+04,      /* I = 39 */
(PID.TID 0000.0001)                 3.950000000000000E+04,      /* I = 40 */
(PID.TID 0000.0001)                 4.050000000000000E+04,      /* I = 41 */
(PID.TID 0000.0001)                 4.150000000000000E+04,      /* I = 42 */
(PID.TID 0000.0001)                 4.250000000000000E+04,      /* I = 43 */
(PID.TID 0000.0001)                 4.350000000000000E+04,      /* I = 44 */
(PID.TID 0000.0001)                 4.450000000000000E+04,      /* I = 45 */
(PID.TID 0000.0001)                 4.550000000000000E+04,      /* I = 46 */
(PID.TID 0000.0001)                 4.650000000000000E+04,      /* I = 47 */
(PID.TID 0000.0001)                 4.750000000000000E+04,      /* I = 48 */
(PID.TID 0000.0001)                 4.850000000000000E+04,      /* I = 49 */
(PID.TID 0000.0001)                 4.950000000000000E+04       /* I = 50 */
(PID.TID 0000.0001)     ;
(PID.TID 0000.0001) yC =  /* yC(1,:,1,:) : P-point Y coord ( deg. or m if cartesian) */
(PID.TID 0000.0001)                 5.000000000000000E+02,      /* J =  1 */
(PID.TID 0000.0001)                 1.500000000000000E+03,      /* J =  2 */
(PID.TID 0000.0001)                 2.500000000000000E+03,      /* J =  3 */
(PID.TID 0000.0001)                 3.500000000000000E+03,      /* J =  4 */
(PID.TID 0000.0001)                 4.500000000000000E+03,      /* J =  5 */
(PID.TID 0000.0001)                 5.500000000000000E+03,      /* J =  6 */
(PID.TID 0000.0001)                 6.500000000000000E+03,      /* J =  7 */
(PID.TID 0000.0001)                 7.500000000000000E+03,      /* J =  8 */
(PID.TID 0000.0001)                 8.500000000000000E+03,      /* J =  9 */
(PID.TID 0000.0001)                 9.500000000000000E+03,      /* J = 10 */
(PID.TID 0000.0001)                 1.050000000000000E+04,      /* J = 11 */
(PID.TID 0000.0001)                 1.150000000000000E+04,      /* J = 12 */
(PID.TID 0000.0001)                 1.250000000000000E+04,      /* J = 13 */
(PID.TID 0000.0001)                 1.350000000000000E+04,      /* J = 14 */
(PID.TID 0000.0001)                 1.450000000000000E+04,      /* J = 15 */
(PID.TID 0000.0001)                 1.550000000000000E+04,      /* J = 16 */
(PID.TID 0000.0001)                 1.650000000000000E+04,      /* J = 17 */
(PID.TID 0000.0001)                 1.750000000000000E+04,      /* J = 18 */
(PID.TID 0000.0001)                 1.850000000000000E+04,      /* J = 19 */
(PID.TID 0000.0001)                 1.950000000000000E+04,      /* J = 20 */
(PID.TID 0000.0001)                 2.050000000000000E+04,      /* J = 21 */
(PID.TID 0000.0001)                 2.150000000000000E+04,      /* J = 22 */
(PID.TID 0000.0001)                 2.250000000000000E+04,      /* J = 23 */
(PID.TID 0000.0001)                 2.350000000000000E+04,      /* J = 24 */
(PID.TID 0000.0001)                 2.450000000000000E+04,      /* J = 25 */
(PID.TID 0000.0001)                 2.550000000000000E+04       /* J = 26 */
(PID.TID 0000.0001)     ;
(PID.TID 0000.0001) rcoord = /* P-point R coordinate (  units of r ) */
(PID.TID 0000.0001)                -2.500000000000000E+00,      /* K =  1 */
(PID.TID 0000.0001)                -7.500000000000000E+00,      /* K =  2 */
(PID.TID 0000.0001)                -1.250000000000000E+01,      /* K =  3 */
(PID.TID 0000.0001)                -1.750000000000000E+01,      /* K =  4 */
(PID.TID 0000.0001)                -2.250000000000000E+01,      /* K =  5 */
(PID.TID 0000.0001)                -2.750000000000000E+01,      /* K =  6 */
(PID.TID 0000.0001)                -3.250000000000000E+01,      /* K =  7 */
(PID.TID 0000.0001)                -3.750000000000000E+01,      /* K =  8 */
(PID.TID 0000.0001)                -4.250000000000000E+01,      /* K =  9 */
(PID.TID 0000.0001)                -4.750000000000000E+01,      /* K = 10 */
(PID.TID 0000.0001)                -5.250000000000000E+01,      /* K = 11 */
(PID.TID 0000.0001)                -5.750000000000000E+01,      /* K = 12 */
(PID.TID 0000.0001)                -6.250000000000000E+01,      /* K = 13 */
(PID.TID 0000.0001)                -6.750000000000000E+01,      /* K = 14 */
(PID.TID 0000.0001)                -7.250000000000000E+01,      /* K = 15 */
(PID.TID 0000.0001)                -7.750000000000000E+01,      /* K = 16 */
(PID.TID 0000.0001)                -8.250000000000000E+01,      /* K = 17 */
(PID.TID 0000.0001)                -8.750000000000000E+01,      /* K = 18 */
(PID.TID 0000.0001)                -9.250000000000000E+01,      /* K = 19 */
(PID.TID 0000.0001)                -9.750000000000000E+01,      /* K = 20 */
(PID.TID 0000.0001)                -1.025000000000000E+02,      /* K = 21 */
(PID.TID 0000.0001)                -1.075000000000000E+02,      /* K = 22 */
(PID.TID 0000.0001)                -1.125000000000000E+02,      /* K = 23 */
(PID.TID 0000.0001)                -1.175000000000000E+02,      /* K = 24 */
(PID.TID 0000.0001)                -1.225000000000000E+02,      /* K = 25 */
(PID.TID 0000.0001)                -1.275000000000000E+02,      /* K = 26 */
(PID.TID 0000.0001)                -1.325000000000000E+02,      /* K = 27 */
(PID.TID 0000.0001)                -1.375000000000000E+02,      /* K = 28 */
(PID.TID 0000.0001)                -1.425000000000000E+02,      /* K = 29 */
(PID.TID 0000.0001)                -1.475000000000000E+02,      /* K = 30 */
(PID.TID 0000.0001)                -1.525000000000000E+02,      /* K = 31 */
(PID.TID 0000.0001)                -1.575000000000000E+02,      /* K = 32 */
(PID.TID 0000.0001)                -1.625000000000000E+02,      /* K = 33 */
(PID.TID 0000.0001)                -1.675000000000000E+02,      /* K = 34 */
(PID.TID 0000.0001)                -1.725000000000000E+02,      /* K = 35 */
(PID.TID 0000.0001)                -1.775000000000000E+02,      /* K = 36 */
(PID.TID 0000.0001)                -1.825000000000000E+02,      /* K = 37 */
(PID.TID 0000.0001)                -1.875000000000000E+02,      /* K = 38 */
(PID.TID 0000.0001)                -1.925000000000000E+02,      /* K = 39 */
(PID.TID 0000.0001)                -1.975000000000000E+02       /* K = 40 */
(PID.TID 0000.0001)     ;
(PID.TID 0000.0001) rF =   /* W-Interf. R coordinate (  units of r ) */
(PID.TID 0000.0001)                 0.000000000000000E+00,      /* K =  1 */
(PID.TID 0000.0001)                -5.000000000000000E+00,      /* K =  2 */
(PID.TID 0000.0001)                -1.000000000000000E+01,      /* K =  3 */
(PID.TID 0000.0001)                -1.500000000000000E+01,      /* K =  4 */
(PID.TID 0000.0001)                -2.000000000000000E+01,      /* K =  5 */
(PID.TID 0000.0001)                -2.500000000000000E+01,      /* K =  6 */
(PID.TID 0000.0001)                -3.000000000000000E+01,      /* K =  7 */
(PID.TID 0000.0001)                -3.500000000000000E+01,      /* K =  8 */
(PID.TID 0000.0001)                -4.000000000000000E+01,      /* K =  9 */
(PID.TID 0000.0001)                -4.500000000000000E+01,      /* K = 10 */
(PID.TID 0000.0001)                -5.000000000000000E+01,      /* K = 11 */
(PID.TID 0000.0001)                -5.500000000000000E+01,      /* K = 12 */
(PID.TID 0000.0001)                -6.000000000000000E+01,      /* K = 13 */
(PID.TID 0000.0001)                -6.500000000000000E+01,      /* K = 14 */
(PID.TID 0000.0001)                -7.000000000000000E+01,      /* K = 15 */
(PID.TID 0000.0001)                -7.500000000000000E+01,      /* K = 16 */
[...]
(PID.TID 0000.0001) %MON dynstat_salt_sd              =   1.8685287704182E-02
(PID.TID 0000.0001) %MON dynstat_salt_del2            =   6.2882853081685E-06
(PID.TID 0000.0001) %MON advcfl_uvel_max              =   1.2729365088181E-02
(PID.TID 0000.0001) %MON advcfl_vvel_max              =   2.4910035437074E-02
(PID.TID 0000.0001) %MON advcfl_wvel_max              =   9.1269568067886E-02
(PID.TID 0000.0001) %MON advcfl_W_hf_max              =   9.1269568067886E-02
(PID.TID 0000.0001) %MON pe_b_mean                    =   3.4232422670982E-09
(PID.TID 0000.0001) %MON ke_max                       =   2.6734008524718E-04
(PID.TID 0000.0001) %MON ke_mean                      =   1.1368557182511E-05
(PID.TID 0000.0001) %MON ke_vol                       =   2.5000000000000E+11
(PID.TID 0000.0001) %MON vort_r_min                   =  -3.6270795336718E-06
(PID.TID 0000.0001) %MON vort_r_max                   =   3.7469907147251E-06
(PID.TID 0000.0001) %MON vort_a_mean                  =   7.2900000000000E-05
(PID.TID 0000.0001) %MON vort_a_sd                    =   8.5365164354011E-07
(PID.TID 0000.0001) %MON vort_p_mean                  =   7.7363265306123E-05
(PID.TID 0000.0001) %MON vort_p_sd                    =   3.0934911310179E-05
(PID.TID 0000.0001) %MON surfExpan_theta_mean         =  -1.6654501104102E-13
(PID.TID 0000.0001) %MON surfExpan_salt_mean          =   2.5592423913423E-17
(PID.TID 0000.0001) // =======================================================
(PID.TID 0000.0001) // End MONITOR dynamic field statistics
(PID.TID 0000.0001) // =======================================================
 cg2d: Sum(rhs),rhsMax =   3.26849658449646E-13  6.43798601381646E-04
(PID.TID 0000.0001)                    cg2d_init_res =    6.54004144289295E-02
(PID.TID 0000.0001)                       cg2d_iters =    75
(PID.TID 0000.0001)                         cg2d_res =    9.34072594422516E-12
(PID.TID 0000.0001) // =======================================================
(PID.TID 0000.0001) // Begin MONITOR dynamic field statistics
(PID.TID 0000.0001) // =======================================================
(PID.TID 0000.0001) %MON time_tsnumber                =                    12
(PID.TID 0000.0001) %MON time_secondsf                =   1.4400000000000E+04
(PID.TID 0000.0001) %MON dynstat_eta_max              =   4.0811638213901E-04
(PID.TID 0000.0001) %MON dynstat_eta_min              =  -4.0738836738059E-04
(PID.TID 0000.0001) %MON dynstat_eta_mean             =  -3.6247074604034E-17
(PID.TID 0000.0001) %MON dynstat_eta_sd               =   3.7359241970777E-04
(PID.TID 0000.0001) %MON dynstat_eta_del2             =   7.8972119771385E-07
(PID.TID 0000.0001) %MON dynstat_uvel_max             =   1.2439824883601E-02
(PID.TID 0000.0001) %MON dynstat_uvel_min             =  -1.2444349081517E-02
(PID.TID 0000.0001) %MON dynstat_uvel_mean            =  -9.1458714717851E-07
(PID.TID 0000.0001) %MON dynstat_uvel_sd              =   2.5274389563268E-03
(PID.TID 0000.0001) %MON dynstat_uvel_del2            =   3.2827724342085E-06
(PID.TID 0000.0001) %MON dynstat_vvel_max             =   2.2011504284475E-02
(PID.TID 0000.0001) %MON dynstat_vvel_min             =  -2.2008812355996E-02
(PID.TID 0000.0001) %MON dynstat_vvel_mean            =   1.2588341955789E-10
(PID.TID 0000.0001) %MON dynstat_vvel_sd              =   4.5951132889287E-03
(PID.TID 0000.0001) %MON dynstat_vvel_del2            =   6.9651459659546E-06
(PID.TID 0000.0001) %MON dynstat_wvel_max             =   4.0283873469659E-04
(PID.TID 0000.0001) %MON dynstat_wvel_min             =  -4.0379856708837E-04
(PID.TID 0000.0001) %MON dynstat_wvel_mean            =  -1.1317337615580E-20
(PID.TID 0000.0001) %MON dynstat_wvel_sd              =   1.2369391215408E-04
(PID.TID 0000.0001) %MON dynstat_wvel_del2            =   4.2444436491882E-07
(PID.TID 0000.0001) %MON dynstat_theta_max            =   1.7020391872709E+01
(PID.TID 0000.0001) %MON dynstat_theta_min            =   1.6979608188987E+01
(PID.TID 0000.0001) %MON dynstat_theta_mean           =   1.6999999916894E+01
(PID.TID 0000.0001) %MON dynstat_theta_sd             =   1.8684266278506E-02
(PID.TID 0000.0001) %MON dynstat_theta_del2           =   6.2773800356897E-06
(PID.TID 0000.0001) %MON dynstat_salt_max             =   1.7020387109310E+01
(PID.TID 0000.0001) %MON dynstat_salt_min             =   1.6979612982854E+01
(PID.TID 0000.0001) %MON dynstat_salt_mean            =   1.7000000005832E+01
(PID.TID 0000.0001) %MON dynstat_salt_sd              =   1.8685276042749E-02
(PID.TID 0000.0001) %MON dynstat_salt_del2            =   6.2880006112743E-06
(PID.TID 0000.0001) %MON advcfl_uvel_max              =   1.4933218897821E-02
(PID.TID 0000.0001) %MON advcfl_vvel_max              =   2.6413805141370E-02
(PID.TID 0000.0001) %MON advcfl_wvel_max              =   9.6911656101209E-02
(PID.TID 0000.0001) %MON advcfl_W_hf_max              =   9.6911656101209E-02
(PID.TID 0000.0001) %MON pe_b_mean                    =   3.4229860359477E-09
(PID.TID 0000.0001) %MON ke_max                       =   3.1392504690052E-04
(PID.TID 0000.0001) %MON ke_mean                      =   1.3329206003497E-05
(PID.TID 0000.0001) %MON ke_vol                       =   2.5000000000000E+11
(PID.TID 0000.0001) %MON vort_r_min                   =  -4.2494885754826E-06
(PID.TID 0000.0001) %MON vort_r_max                   =   4.4150018366188E-06
(PID.TID 0000.0001) %MON vort_a_mean                  =   7.2900000000000E-05
(PID.TID 0000.0001) %MON vort_a_sd                    =   1.0031636434239E-06
(PID.TID 0000.0001) %MON vort_p_mean                  =   7.7363265306123E-05
(PID.TID 0000.0001) %MON vort_p_sd                    =   3.0939672795511E-05
(PID.TID 0000.0001) %MON surfExpan_theta_mean         =  -1.7169173003059E-13
(PID.TID 0000.0001) %MON surfExpan_salt_mean          =   5.1372191733901E-17
(PID.TID 0000.0001) // =======================================================
(PID.TID 0000.0001) // End MONITOR dynamic field statistics
(PID.TID 0000.0001) // =======================================================
 Computing Diagnostic #    142  momKE        Counter:      12   Parms: SMR     MR      
 Computing Diagnostic #    143  momHDiv      Counter:      12   Parms: SMR     MR      
 Computing Diagnostic #    144  momVort3     Counter:      12   Parms: SZR     MR      
 Computing Diagnostic #    145  Strain       Counter:      12   Parms: SZR     MR      
 Computing Diagnostic #    146  Tension      Counter:      12   Parms: SMR     MR      
 Computing Diagnostic #    118  VISCAHD      Counter:      12   Parms: SM      MR      
 Computing Diagnostic #    119  VISCA4D      Counter:      12   Parms: SM      MR      
 Computing Diagnostic #    116  VISCAHZ      Counter:      12   Parms: SZ      MR      
 Computing Diagnostic #    117  VISCA4Z      Counter:      12   Parms: SZ      MR      
 Computing Diagnostic #    124  VAHDMAX      Counter:      12   Parms: SM      MR      
 Computing Diagnostic #    125  VA4DMAX      Counter:      12   Parms: SM      MR      
 Computing Diagnostic #    122  VAHZMAX      Counter:      12   Parms: SZ      MR      
 Computing Diagnostic #    123  VA4ZMAX      Counter:      12   Parms: SZ      MR      
 Computing Diagnostic #    128  VAHDMIN      Counter:      12   Parms: SM      MR      
 Computing Diagnostic #    129  VA4DMIN      Counter:      12   Parms: SM      MR      
 Computing Diagnostic #    126  VAHZMIN      Counter:      12   Parms: SZ      MR      
 Computing Diagnostic #    127  VA4ZMIN      Counter:      12   Parms: SZ      MR      
 Computing Diagnostic #    132  VAHDLTH      Counter:      12   Parms: SM      MR      
 Computing Diagnostic #    133  VA4DLTH      Counter:      12   Parms: SM      MR      
 Computing Diagnostic #    130  VAHZLTH      Counter:      12   Parms: SZ      MR      
 Computing Diagnostic #    131  VA4ZLTH      Counter:      12   Parms: SZ      MR      
 Computing Diagnostic #    136  VAHDLTHD     Counter:      12   Parms: SM      MR      
 Computing Diagnostic #    137  VA4DLTHD     Counter:      12   Parms: SM      MR      
 Computing Diagnostic #    134  VAHZLTHD     Counter:      12   Parms: SZ      MR      
 Computing Diagnostic #    135  VA4ZLTHD     Counter:      12   Parms: SZ      MR      
 Computing Diagnostic #    140  VAHDSMAG     Counter:      12   Parms: SM      MR      
 Computing Diagnostic #    141  VA4DSMAG     Counter:      12   Parms: SM      MR      
 Computing Diagnostic #    138  VAHZSMAG     Counter:      12   Parms: SZ      MR      
 Computing Diagnostic #    139  VA4ZSMAG     Counter:      12   Parms: SZ      MR      
(PID.TID 0000.0001) %CHECKPOINT        12 ckptA
(PID.TID 0000.0001)   Seconds in section "ALL                    [THE_MODEL_MAIN]":
(PID.TID 0000.0001)           User time:   5.6200000000000001
(PID.TID 0000.0001)         System time:  0.34000000000000002
(PID.TID 0000.0001)     Wall clock time:   31.208405017852783
(PID.TID 0000.0001)          No. starts:           1
(PID.TID 0000.0001)           No. stops:           1
(PID.TID 0000.0001)   Seconds in section "INITIALISE_FIXED       [THE_MODEL_MAIN]":
(PID.TID 0000.0001)           User time:  0.29999999999999999
(PID.TID 0000.0001)         System time:  4.00000000000000008E-002
(PID.TID 0000.0001)     Wall clock time:   6.9812591075897217
(PID.TID 0000.0001)          No. starts:           1
(PID.TID 0000.0001)           No. stops:           1
(PID.TID 0000.0001)   Seconds in section "THE_MAIN_LOOP          [THE_MODEL_MAIN]":
(PID.TID 0000.0001)           User time:   5.3100000000000005
(PID.TID 0000.0001)         System time:  0.30000000000000004
(PID.TID 0000.0001)     Wall clock time:   24.223780870437622
(PID.TID 0000.0001)          No. starts:           1
(PID.TID 0000.0001)           No. stops:           1
(PID.TID 0000.0001)   Seconds in section "INITIALISE_VARIA    [THE_MAIN_LOOP]":
(PID.TID 0000.0001)           User time:  0.17000000000000004
(PID.TID 0000.0001)         System time:  4.99999999999999958E-002
(PID.TID 0000.0001)     Wall clock time:   2.6628439426422119
(PID.TID 0000.0001)          No. starts:           1
(PID.TID 0000.0001)           No. stops:           1
(PID.TID 0000.0001)   Seconds in section "MAIN LOOP           [THE_MAIN_LOOP]":
(PID.TID 0000.0001)           User time:   5.1400000000000006
(PID.TID 0000.0001)         System time:  0.25000000000000000
(PID.TID 0000.0001)     Wall clock time:   21.560899019241333
(PID.TID 0000.0001)          No. starts:           1
(PID.TID 0000.0001)           No. stops:           1
(PID.TID 0000.0001)   Seconds in section "FORWARD_STEP        [THE_MAIN_LOOP]":
(PID.TID 0000.0001)           User time:   5.1400000000000006
(PID.TID 0000.0001)         System time:  0.25000000000000006
(PID.TID 0000.0001)     Wall clock time:   21.560778856277466
(PID.TID 0000.0001)          No. starts:          12
(PID.TID 0000.0001)           No. stops:          12
(PID.TID 0000.0001)   Seconds in section "DO_STATEVARS_DIAGS  [FORWARD_STEP]":
(PID.TID 0000.0001)           User time:   0.0000000000000000
(PID.TID 0000.0001)         System time:   0.0000000000000000
(PID.TID 0000.0001)     Wall clock time:  9.66310501098632813E-004
(PID.TID 0000.0001)          No. starts:          36
(PID.TID 0000.0001)           No. stops:          36
(PID.TID 0000.0001)   Seconds in section "LOAD_FIELDS_DRIVER  [FORWARD_STEP]":
(PID.TID 0000.0001)           User time:   0.0000000000000000
(PID.TID 0000.0001)         System time:   0.0000000000000000
(PID.TID 0000.0001)     Wall clock time:  3.39984893798828125E-004
(PID.TID 0000.0001)          No. starts:          12
(PID.TID 0000.0001)           No. stops:          12
(PID.TID 0000.0001)   Seconds in section "EXTERNAL_FLDS_LOAD [LOAD_FLDS_DRIVER]":
(PID.TID 0000.0001)           User time:   0.0000000000000000
(PID.TID 0000.0001)         System time:   0.0000000000000000
(PID.TID 0000.0001)     Wall clock time:  1.13725662231445313E-004
(PID.TID 0000.0001)          No. starts:          12
(PID.TID 0000.0001)           No. stops:          12
(PID.TID 0000.0001)   Seconds in section "DO_ATMOSPHERIC_PHYS [FORWARD_STEP]":
(PID.TID 0000.0001)           User time:   0.0000000000000000
(PID.TID 0000.0001)         System time:   0.0000000000000000
(PID.TID 0000.0001)     Wall clock time:  1.14917755126953125E-004
(PID.TID 0000.0001)          No. starts:          12
(PID.TID 0000.0001)           No. stops:          12
(PID.TID 0000.0001)   Seconds in section "DO_OCEANIC_PHYS     [FORWARD_STEP]":
(PID.TID 0000.0001)           User time:  0.10000000000000142
(PID.TID 0000.0001)         System time:   0.0000000000000000
(PID.TID 0000.0001)     Wall clock time:  0.10809731483459473
(PID.TID 0000.0001)          No. starts:          12
(PID.TID 0000.0001)           No. stops:          12
(PID.TID 0000.0001)   Seconds in section "DYNAMICS            [FORWARD_STEP]":
(PID.TID 0000.0001)           User time:   1.8899999999999970
(PID.TID 0000.0001)         System time:  2.00000000000000039E-002
(PID.TID 0000.0001)     Wall clock time:   1.9047002792358398
(PID.TID 0000.0001)          No. starts:          12
(PID.TID 0000.0001)           No. stops:          12
(PID.TID 0000.0001)   Seconds in section "SOLVE_FOR_PRESSURE  [FORWARD_STEP]":
(PID.TID 0000.0001)           User time:  0.23000000000000131
(PID.TID 0000.0001)         System time:   0.0000000000000000
(PID.TID 0000.0001)     Wall clock time:  0.22851300239562988
(PID.TID 0000.0001)          No. starts:          12
(PID.TID 0000.0001)           No. stops:          12
(PID.TID 0000.0001)   Seconds in section "MOM_CORRECTION_STEP [FORWARD_STEP]":
(PID.TID 0000.0001)           User time:  6.99999999999993960E-002
(PID.TID 0000.0001)         System time:   0.0000000000000000
(PID.TID 0000.0001)     Wall clock time:  8.10809135437011719E-002
(PID.TID 0000.0001)          No. starts:          12
(PID.TID 0000.0001)           No. stops:          12
(PID.TID 0000.0001)   Seconds in section "BLOCKING_EXCHANGES  [FORWARD_STEP]":
(PID.TID 0000.0001)           User time:  0.18000000000000060
(PID.TID 0000.0001)         System time:   0.0000000000000000
(PID.TID 0000.0001)     Wall clock time:  0.17551517486572266
(PID.TID 0000.0001)          No. starts:          24
(PID.TID 0000.0001)           No. stops:          24
(PID.TID 0000.0001)   Seconds in section "THERMODYNAMICS      [FORWARD_STEP]":
(PID.TID 0000.0001)           User time:   1.5599999999999996
(PID.TID 0000.0001)         System time:   0.0000000000000000
(PID.TID 0000.0001)     Wall clock time:   1.5611748695373535
(PID.TID 0000.0001)          No. starts:          12
(PID.TID 0000.0001)           No. stops:          12
(PID.TID 0000.0001)   Seconds in section "TRC_CORRECTION_STEP [FORWARD_STEP]":
(PID.TID 0000.0001)           User time:  1.99999999999995737E-002
(PID.TID 0000.0001)         System time:   0.0000000000000000
(PID.TID 0000.0001)     Wall clock time:  1.99558734893798828E-002
(PID.TID 0000.0001)          No. starts:          12
(PID.TID 0000.0001)           No. stops:          12
(PID.TID 0000.0001)   Seconds in section "DO_STATEVARS_TAVE   [FORWARD_STEP]":
(PID.TID 0000.0001)           User time:   0.0000000000000000
(PID.TID 0000.0001)         System time:   0.0000000000000000
(PID.TID 0000.0001)     Wall clock time:  1.07288360595703125E-004
(PID.TID 0000.0001)          No. starts:          12
(PID.TID 0000.0001)           No. stops:          12
(PID.TID 0000.0001)   Seconds in section "MONITOR             [FORWARD_STEP]":
(PID.TID 0000.0001)           User time:  0.43999999999999950
(PID.TID 0000.0001)         System time:   0.0000000000000000
(PID.TID 0000.0001)     Wall clock time:  0.44872498512268066
(PID.TID 0000.0001)          No. starts:          12
(PID.TID 0000.0001)           No. stops:          12
(PID.TID 0000.0001)   Seconds in section "DO_THE_MODEL_IO     [FORWARD_STEP]":
(PID.TID 0000.0001)           User time:  0.64000000000000057
(PID.TID 0000.0001)         System time:  0.22000000000000003
(PID.TID 0000.0001)     Wall clock time:   17.009990215301514
(PID.TID 0000.0001)          No. starts:          12
(PID.TID 0000.0001)           No. stops:          12
(PID.TID 0000.0001)   Seconds in section "DO_WRITE_PICKUP     [FORWARD_STEP]":
(PID.TID 0000.0001)           User time:  9.99999999999978684E-003
(PID.TID 0000.0001)         System time:  1.00000000000000089E-002
(PID.TID 0000.0001)     Wall clock time:  1.95119380950927734E-002
(PID.TID 0000.0001)          No. starts:          12
(PID.TID 0000.0001)           No. stops:          12
(PID.TID 0000.0001) // ======================================================
(PID.TID 0000.0001) // Tile <-> Tile communication statistics
(PID.TID 0000.0001) // ======================================================
(PID.TID 0000.0001) // o Tile number: 000001
(PID.TID 0000.0001) //         No. X exchanges =              0
(PID.TID 0000.0001) //            Max. X spins =              0
(PID.TID 0000.0001) //            Min. X spins =     1000000000
(PID.TID 0000.0001) //          Total. X spins =              0
(PID.TID 0000.0001) //            Avg. X spins =       0.00E+00
(PID.TID 0000.0001) //         No. Y exchanges =              0
(PID.TID 0000.0001) //            Max. Y spins =              0
(PID.TID 0000.0001) //            Min. Y spins =     1000000000
(PID.TID 0000.0001) //          Total. Y spins =              0
(PID.TID 0000.0001) //            Avg. Y spins =       0.00E+00
(PID.TID 0000.0001) // o Tile number: 000002
(PID.TID 0000.0001) //         No. X exchanges =              0
(PID.TID 0000.0001) //            Max. X spins =              0
(PID.TID 0000.0001) //            Min. X spins =     1000000000
(PID.TID 0000.0001) //          Total. X spins =              0
(PID.TID 0000.0001) //            Avg. X spins =       0.00E+00
(PID.TID 0000.0001) //         No. Y exchanges =              0
(PID.TID 0000.0001) //            Max. Y spins =              0
(PID.TID 0000.0001) //            Min. Y spins =     1000000000
(PID.TID 0000.0001) //          Total. Y spins =              0
(PID.TID 0000.0001) //            Avg. Y spins =       0.00E+00
(PID.TID 0000.0001) // o Tile number: 000003
(PID.TID 0000.0001) //         No. X exchanges =              0
(PID.TID 0000.0001) //            Max. X spins =              0
(PID.TID 0000.0001) //            Min. X spins =     1000000000
(PID.TID 0000.0001) //          Total. X spins =              0
(PID.TID 0000.0001) //            Avg. X spins =       0.00E+00
(PID.TID 0000.0001) //         No. Y exchanges =              0
(PID.TID 0000.0001) //            Max. Y spins =              0
(PID.TID 0000.0001) //            Min. Y spins =     1000000000
(PID.TID 0000.0001) //          Total. Y spins =              0
(PID.TID 0000.0001) //            Avg. Y spins =       0.00E+00
(PID.TID 0000.0001) // o Tile number: 000004
(PID.TID 0000.0001) //         No. X exchanges =              0
(PID.TID 0000.0001) //            Max. X spins =              0
(PID.TID 0000.0001) //            Min. X spins =     1000000000
(PID.TID 0000.0001) //          Total. X spins =              0
(PID.TID 0000.0001) //            Avg. X spins =       0.00E+00
(PID.TID 0000.0001) //         No. Y exchanges =              0
(PID.TID 0000.0001) //            Max. Y spins =              0
(PID.TID 0000.0001) //            Min. Y spins =     1000000000
(PID.TID 0000.0001) //          Total. Y spins =              0
(PID.TID 0000.0001) //            Avg. Y spins =       0.00E+00
(PID.TID 0000.0001) // o Thread number: 000001
(PID.TID 0000.0001) //            No. barriers =          11398
(PID.TID 0000.0001) //      Max. barrier spins =              1
(PID.TID 0000.0001) //      Min. barrier spins =              1
(PID.TID 0000.0001) //     Total barrier spins =          11398
(PID.TID 0000.0001) //      Avg. barrier spins =       1.00E+00
PROGRAM MAIN: Execution ended Normally
