(PID.TID 0000.0001) 
(PID.TID 0000.0001) // ======================================================
(PID.TID 0000.0001) //                      MITgcm UV
(PID.TID 0000.0001) //                      =========
(PID.TID 0000.0001) // ======================================================
(PID.TID 0000.0001) // execution environment starting up...
(PID.TID 0000.0001) 
(PID.TID 0000.0001) // MITgcmUV version:  checkpoint57r_post
(PID.TID 0000.0001) // Build user:        baylor
(PID.TID 0000.0001) // Build host:        faulks
(PID.TID 0000.0001) // Build date:        Mon Sep 19 16:05:55 EDT 2005
(PID.TID 0000.0001) 
(PID.TID 0000.0001) // =======================================================
(PID.TID 0000.0001) // Execution Environment parameter file "eedata"
(PID.TID 0000.0001) // =======================================================
(PID.TID 0000.0001) ># Example "eedata" file
(PID.TID 0000.0001) ># Lines beginning "#" are comments
(PID.TID 0000.0001) ># nTx - No. threads per process in X
(PID.TID 0000.0001) ># nTy - No. threads per process in Y
(PID.TID 0000.0001) > &EEPARMS
(PID.TID 0000.0001) > /
(PID.TID 0000.0001) ># Note: Some systems use & as the
(PID.TID 0000.0001) ># namelist terminator. Other systems
(PID.TID 0000.0001) ># use a & character (as shown here).
(PID.TID 0000.0001) 
(PID.TID 0000.0001) // =======================================================
(PID.TID 0000.0001) // Computational Grid Specification ( see files "SIZE.h" )
(PID.TID 0000.0001) //                                  ( and "eedata"       )
(PID.TID 0000.0001) // =======================================================
(PID.TID 0000.0001)      nPx =    1 ; /* No. processes in X */
(PID.TID 0000.0001)      nPy =    1 ; /* No. processes in Y */
(PID.TID 0000.0001)      nSx =    1 ; /* No. tiles in X per process */
(PID.TID 0000.0001)      nSy =    1 ; /* No. tiles in Y per process */
(PID.TID 0000.0001)      sNx =   50 ; /* Tile size in X */
(PID.TID 0000.0001)      sNy =   26 ; /* Tile size in Y */
(PID.TID 0000.0001)      OLx =    3 ; /* Tile overlap distance in X */
(PID.TID 0000.0001)      OLy =    3 ; /* Tile overlap distance in Y */
(PID.TID 0000.0001)      nTx =    1 ; /* No. threads in X per process */
(PID.TID 0000.0001)      nTy =    1 ; /* No. threads in Y per process */
(PID.TID 0000.0001)       Nr =   40 ; /* No. levels in the vertical   */
(PID.TID 0000.0001)       nX =   50 ; /* Total domain size in X ( = nPx*nSx*sNx ) */
(PID.TID 0000.0001)       nY =   26 ; /* Total domain size in Y ( = nPy*nSy*sNy ) */
(PID.TID 0000.0001)   nTiles =    1 ; /* Total no. tiles per process ( = nSx*nSy ) */
(PID.TID 0000.0001)   nProcs =    1 ; /* Total no. processes ( = nPx*nPy ) */
(PID.TID 0000.0001) nThreads =    1 ; /* Total no. threads per process ( = nTx*nTy ) */
(PID.TID 0000.0001) usingMPI =    F ; /* Flag used to control whether MPI is in use */
(PID.TID 0000.0001)                   /*  note: To execute a program with MPI calls */
(PID.TID 0000.0001)                   /*  it must be launched appropriately e.g     */
(PID.TID 0000.0001)                   /*  "mpirun -np 64 ......"                    */
(PID.TID 0000.0001) useCoupler=   F ; /* Flag used to control communications with */
(PID.TID 0000.0001)                   /*  other model components, through a coupler */
(PID.TID 0000.0001) 
(PID.TID 0000.0001) // ======================================================
(PID.TID 0000.0001) // Mapping of tiles to threads
(PID.TID 0000.0001) // ======================================================
(PID.TID 0000.0001) // -o- Thread   1, tiles (   1:   1,   1:   1)
(PID.TID 0000.0001) 
(PID.TID 0000.0001) // ======================================================
(PID.TID 0000.0001) // Tile <-> Tile connectvity table
(PID.TID 0000.0001) // ======================================================
(PID.TID 0000.0001) // Tile number: 000001 (process no. = 000001)
(PID.TID 0000.0001) //        WEST: Tile = 000001, Process = 000001, Comm = put
(PID.TID 0000.0001) //                bi = 000001, bj = 000001
(PID.TID 0000.0001) //        EAST: Tile = 000001, Process = 000001, Comm = put
(PID.TID 0000.0001) //                bi = 000001, bj = 000001
(PID.TID 0000.0001) //       SOUTH: Tile = 000001, Process = 000001, Comm = put
(PID.TID 0000.0001) //                bi = 000001, bj = 000001
(PID.TID 0000.0001) //       NORTH: Tile = 000001, Process = 000001, Comm = put
(PID.TID 0000.0001) //                bi = 000001, bj = 000001
(PID.TID 0000.0001) 
(PID.TID 0000.0001) // =======================================================
(PID.TID 0000.0001) // Model parameter file "data"
(PID.TID 0000.0001) // =======================================================
(PID.TID 0000.0001) ># ====================
(PID.TID 0000.0001) ># | Model parameters |
(PID.TID 0000.0001) ># ====================
(PID.TID 0000.0001) >#
(PID.TID 0000.0001) ># Continuous equation parameters
(PID.TID 0000.0001) > &PARM01
(PID.TID 0000.0001) > viscAr=5.E-3,
(PID.TID 0000.0001) ># This is the minimum viscosity used total=viscah+viscleith
(PID.TID 0000.0001) ># Often U*deltaX/2 for grid noise (Griffies and Hallberg,2000)
(PID.TID 0000.0001) > viscAh=3.E1,
(PID.TID 0000.0001) ># This is the standard Leith Viscosity, prop to grad(curl v_h)
(PID.TID 0000.0001) > viscC2leith=5.,
(PID.TID 0000.0001) ># This is an additional Leith Viscosity, prop to grad(div.v_h)
(PID.TID 0000.0001) ># It traps instabilities that have no signal in grad(curl v_h)
(PID.TID 0000.0001) ># viscC2leithD=5.,
(PID.TID 0000.0001) ># These are the minimum viscosities used with Smagorinsky
(PID.TID 0000.0001) ># total=viscastrain+viscsmag, etc.
(PID.TID 0000.0001) ># viscAstrain=3.E1,
(PID.TID 0000.0001) ># viscAtension=3.E1,
(PID.TID 0000.0001) ># This is harmonic Smagorinsky Coefficient
(PID.TID 0000.0001) ># 0.15=value from 3-d turbulence theory;
(PID.TID 0000.0001) ># 3-4=stable oceanic values (Griffies and Hallberg, 2000)
(PID.TID 0000.0001) ># viscC2Smag=4.,
(PID.TID 0000.0001) ># This is the max Viscosity used, be it Smag or Leith, and it scales
(PID.TID 0000.0001) ># with grid size and timestep
(PID.TID 0000.0001) ># Often 0.5 for stability (Griffies and Hallberg,2000)
(PID.TID 0000.0001) > viscAhGridMax=0.5,
(PID.TID 0000.0001) > useFullLeith=.TRUE.,
(PID.TID 0000.0001) > no_slip_sides=.FALSE.,
(PID.TID 0000.0001) > no_slip_bottom=.FALSE.,
(PID.TID 0000.0001) > ivdc_kappa=10.,
(PID.TID 0000.0001) > implicitDiffusion=.TRUE.,
(PID.TID 0000.0001) > implicitViscosity=.TRUE.,
(PID.TID 0000.0001) > f0=7.29e-5,
(PID.TID 0000.0001) > beta=0.E-11,
(PID.TID 0000.0001) > eosType='LINEAR',
(PID.TID 0000.0001) ># Using Temperature as only Active Tracer
(PID.TID 0000.0001) > tAlpha=2.E-4,
(PID.TID 0000.0001) ># Using Salinity as Spice
(PID.TID 0000.0001) > sBeta =0.E-4,
(PID.TID 0000.0001) > saltStepping=.TRUE.,
(PID.TID 0000.0001) > gravity=9.81,
(PID.TID 0000.0001) > rhonil=1035.,
(PID.TID 0000.0001) > implicitFreeSurface=.TRUE.,
(PID.TID 0000.0001) > usejamartwetpoints=.TRUE.,
(PID.TID 0000.0001) > rigidLid=.FALSE.,
(PID.TID 0000.0001) > staggerTimeStep=.TRUE.,
(PID.TID 0000.0001) > readBinaryPrec=64,
(PID.TID 0000.0001) > writeBinaryPrec=64,
(PID.TID 0000.0001) > tempAdvScheme=33,
(PID.TID 0000.0001) > saltAdvScheme=33,
(PID.TID 0000.0001) > nonHydrostatic=.FALSE.,
(PID.TID 0000.0001) > vectorInvariantMomentum=.TRUE.,
(PID.TID 0000.0001) > /
(PID.TID 0000.0001) >
(PID.TID 0000.0001) ># Elliptic solver parameters
(PID.TID 0000.0001) > &PARM02
(PID.TID 0000.0001) > cg2dMaxIters=1000,
(PID.TID 0000.0001) > cg2dTargetResidual=1.E-11,
(PID.TID 0000.0001) > cg3dMaxIters=40,
(PID.TID 0000.0001) > cg3dTargetResidual=1.E-9,
(PID.TID 0000.0001) > /
(PID.TID 0000.0001) >
(PID.TID 0000.0001) ># Time stepping parameters
(PID.TID 0000.0001) > &PARM03
(PID.TID 0000.0001) > niter0=36,
(PID.TID 0000.0001) > endTime=57600.,
(PID.TID 0000.0001) > deltaT=1200.,
(PID.TID 0000.0001) > abEps=0.01,
(PID.TID 0000.0001) > pchkptFreq=7200.,
(PID.TID 0000.0001) > taveFreq=7200.,
(PID.TID 0000.0001) > dumpFreq=7200.,
(PID.TID 0000.0001) > diagFreq=7200.,
(PID.TID 0000.0001) > monitorFreq=1200.,
(PID.TID 0000.0001) > cadjfreq=0.,
(PID.TID 0000.0001) > /
(PID.TID 0000.0001) >
(PID.TID 0000.0001) ># Gridding parameters
(PID.TID 0000.0001) > &PARM04
(PID.TID 0000.0001) > usingCartesianGrid=.TRUE.,
(PID.TID 0000.0001) > usingSphericalPolarGrid=.FALSE.,
(PID.TID 0000.0001) >  delR= 5d0, 5d0, 5d0, 5d0, 5d0,
(PID.TID 0000.0001) >    5d0, 5d0, 5d0, 5d0, 5d0,
(PID.TID 0000.0001) >    5d0, 5d0, 5d0, 5d0, 5d0,
(PID.TID 0000.0001) >    5d0, 5d0, 5d0, 5d0, 5d0,
(PID.TID 0000.0001) >    5d0, 5d0, 5d0, 5d0, 5d0,
(PID.TID 0000.0001) >    5d0, 5d0, 5d0, 5d0, 5d0,
(PID.TID 0000.0001) >    5d0, 5d0, 5d0, 5d0, 5d0,
(PID.TID 0000.0001) >    5d0, 5d0, 5d0, 5d0, 5d0,
(PID.TID 0000.0001) > dxspacing=1d3,
(PID.TID 0000.0001) > dyspacing=1d3,
(PID.TID 0000.0001) > /
(PID.TID 0000.0001) >
(PID.TID 0000.0001) ># Input datasets
(PID.TID 0000.0001) > &PARM05
(PID.TID 0000.0001) > bathyFile='topo_sl.bin',
(PID.TID 0000.0001) > hydrogThetaFile='thetaInitial.bin',
(PID.TID 0000.0001) > hydrogSaltFile='spiceInitial.bin',
(PID.TID 0000.0001) > /
(PID.TID 0000.0001) >
(PID.TID 0000.0001) 
(PID.TID 0000.0001) S/R INI_PARMS ; starts to read PARM01
(PID.TID 0000.0001) S/R INI_PARMS ; read PARM01 : OK
(PID.TID 0000.0001) S/R INI_PARMS ; starts to read PARM02
(PID.TID 0000.0001) S/R INI_PARMS ; read PARM02 : OK
(PID.TID 0000.0001) S/R INI_PARMS ; starts to read PARM03
(PID.TID 0000.0001) S/R INI_PARMS ; read PARM03 : OK
(PID.TID 0000.0001) S/R INI_PARMS ; starts to read PARM04
(PID.TID 0000.0001) S/R INI_PARMS ; read PARM04 : OK
(PID.TID 0000.0001) S/R INI_PARMS ; starts to read PARM05
(PID.TID 0000.0001) S/R INI_PARMS ; read PARM05 : OK
(PID.TID 0000.0001)  PACKAGES_BOOT: opening data.pkg
(PID.TID 0000.0001)  OPEN_COPY_DATA_FILE: opening file data.pkg
(PID.TID 0000.0001) // =======================================================
(PID.TID 0000.0001) // Parameter file "data.pkg"
(PID.TID 0000.0001) // =======================================================
(PID.TID 0000.0001) ># Packages
(PID.TID 0000.0001) > &PACKAGES
(PID.TID 0000.0001) >   useKPP     = .FALSE.,
(PID.TID 0000.0001) >   useMNC     = .TRUE.,
(PID.TID 0000.0001) >   useDIAGNOSTICS= .TRUE.,
(PID.TID 0000.0001) > /
(PID.TID 0000.0001) >
(PID.TID 0000.0001) 
(PID.TID 0000.0001)  PACKAGES_BOOT: finished reading data.pkg
(PID.TID 0000.0001)  MNC_READPARMS: opening file 'data.mnc'
(PID.TID 0000.0001)  OPEN_COPY_DATA_FILE: opening file data.mnc
(PID.TID 0000.0001) // =======================================================
(PID.TID 0000.0001) // Parameter file "data.mnc"
(PID.TID 0000.0001) // =======================================================
(PID.TID 0000.0001) ># Example "data.mnc" file
(PID.TID 0000.0001) ># Lines beginning "#" are comments
(PID.TID 0000.0001) > &MNC_01
(PID.TID 0000.0001) ># mnc_echo_gvtypes=.FALSE.,
(PID.TID 0000.0001) ># mnc_use_indir=.FALSE.,
(PID.TID 0000.0001) > mnc_use_outdir=.TRUE.,
(PID.TID 0000.0001) > mnc_outdir_str='mnc_test_',
(PID.TID 0000.0001) ># mnc_outdir_date=.TRUE.,
(PID.TID 0000.0001) > monitor_mnc=.FALSE.,
(PID.TID 0000.0001) > snapshot_mnc=.TRUE.,
(PID.TID 0000.0001) > timeave_mnc=.TRUE.,
(PID.TID 0000.0001) > pickup_write_mnc=.TRUE.,
(PID.TID 0000.0001) > pickup_read_mnc=.TRUE.,
(PID.TID 0000.0001) > /
(PID.TID 0000.0001) ># Note: Some systems use & as the
(PID.TID 0000.0001) ># namelist terminator. Other systems
(PID.TID 0000.0001) ># use a & character (as shown here).
(PID.TID 0000.0001) 
(PID.TID 0000.0001)  MNC_READPARMS: finished reading data.mnc
(PID.TID 0000.0001)  DIAGNOSTICS_READPARMS: opening data.diagnostics
(PID.TID 0000.0001)  OPEN_COPY_DATA_FILE: opening file data.diagnostics
(PID.TID 0000.0001) // =======================================================
(PID.TID 0000.0001) // Parameter file "data.diagnostics"
(PID.TID 0000.0001) // =======================================================
(PID.TID 0000.0001) ># Diagnostic Package Choices
(PID.TID 0000.0001) >#-----------------
(PID.TID 0000.0001) ># for each output-stream:
(PID.TID 0000.0001) >#  filename(n) : prefix of the output file name (only 8.c long) for outp.stream n
(PID.TID 0000.0001) >#  frequency(n):< 0 : write snap-shot output every |frequency| seconds
(PID.TID 0000.0001) >#               > 0 : write time-average output every frequency seconds
(PID.TID 0000.0001) >#  timePhase(n)     : write at time = timePhase + multiple of |frequency|
(PID.TID 0000.0001) >#  levels(:,n) : list of levels to write to file (Notes: declared as REAL)
(PID.TID 0000.0001) >#                 when this entry is missing, select all common levels of this list
(PID.TID 0000.0001) >#  fields(:,n) : list of diagnostics fields (8.c) (see "available_diagnostics" file
(PID.TID 0000.0001) >#                 for the list of all available diag. in this particular config)
(PID.TID 0000.0001) >#-----------------
(PID.TID 0000.0001) > &diagnostics_list
(PID.TID 0000.0001) >  diag_mnc=.TRUE.,
(PID.TID 0000.0001) >  frequency(1) = 86400.,
(PID.TID 0000.0001) >  fields(1,1) = 'UVELSLT ','VVELSLT ','WVELSLT ',
(PID.TID 0000.0001) >  filename(1) = 'spiceflx',
(PID.TID 0000.0001) >  frequency(2) = 86400.,
(PID.TID 0000.0001) >  fields(1,2) = 'UVELTH  ','VVELTH ','WVELTH ',
(PID.TID 0000.0001) >  filename(2) = 'thetaflx',
(PID.TID 0000.0001) > &
(PID.TID 0000.0001) >
(PID.TID 0000.0001) >
(PID.TID 0000.0001) ># Parameter for Diagnostics of per level statistics:
(PID.TID 0000.0001) >#-----------------
(PID.TID 0000.0001) ># for each output-stream:
(PID.TID 0000.0001) >#  stat_fname(n) : prefix of the output file name (only 8.c long) for outp.stream n
(PID.TID 0000.0001) >#  stat_freq(n):< 0 : write snap-shot output every |stat_freq| seconds
(PID.TID 0000.0001) >#               > 0 : write time-average output every stat_freq seconds
(PID.TID 0000.0001) >#  stat_phase(n)    : write at time = stat_phase + multiple of |stat_freq|
(PID.TID 0000.0001) >#  stat_region(:,n) : list of "regions" (default: 1 region only=global)
(PID.TID 0000.0001) >#  stat_fields(:,n) : list of diagnostics fields (8.c) (see "available_diagnostics.log"
(PID.TID 0000.0001) >#                 file for the list of all available diag. in this particular config)
(PID.TID 0000.0001) >#-----------------
(PID.TID 0000.0001) > &DIAG_STATIS_PARMS
(PID.TID 0000.0001) >#- an example just to check the agreement with MONITOR output:
(PID.TID 0000.0001) >#stat_fields(1,1)= 'ETAN    ','UVEL    ','VVEL    ','WVEL    ', 'THETA   ',
(PID.TID 0000.0001) >#   stat_fname(1)= 'dynStDiag',
(PID.TID 0000.0001) >#    stat_freq(1)= -864000.,
(PID.TID 0000.0001) >#   stat_phase(1)= 0.,
(PID.TID 0000.0001) > &
(PID.TID 0000.0001) >
(PID.TID 0000.0001) 
(PID.TID 0000.0001) S/R DIAGNOSTICS_READPARMS, read namelist "diagnostics_list": start
(PID.TID 0000.0001) S/R DIAGNOSTICS_READPARMS, read namelist "diagnostics_list": OK
(PID.TID 0000.0001) S/R DIAGNOSTICS_READPARMS, read namelist "DIAG_STATIS_PARMS": start
(PID.TID 0000.0001) S/R DIAGNOSTICS_READPARMS, read namelist "DIAG_STATIS_PARMS": OK
(PID.TID 0000.0001) -----------------------------------------------------
(PID.TID 0000.0001)  DIAGNOSTICS_READPARMS: active diagnostics summary:
(PID.TID 0000.0001) -----------------------------------------------------
(PID.TID 0000.0001) Creating Output Stream: spiceflx
(PID.TID 0000.0001) Frequency :      86400.000000 ; Phase:          0.000000
(PID.TID 0000.0001)  Levels:    will be set later
(PID.TID 0000.0001)  Fields:    UVELSLT  VVELSLT  WVELSLT
(PID.TID 0000.0001) Creating Output Stream: thetaflx
(PID.TID 0000.0001) Frequency :      86400.000000 ; Phase:          0.000000
(PID.TID 0000.0001)  Levels:    will be set later
(PID.TID 0000.0001)  Fields:    UVELTH   VVELTH   WVELTH
(PID.TID 0000.0001) -----------------------------------------------------
(PID.TID 0000.0001)  DIAGNOSTICS_READPARMS: statistics diags. summary:
(PID.TID 0000.0001) -----------------------------------------------------
(PID.TID 0000.0001) 
(PID.TID 0000.0001) %MON XC_max                       =   4.9500000000000E+04
(PID.TID 0000.0001) %MON XC_min                       =   5.0000000000000E+02
(PID.TID 0000.0001) %MON XC_mean                      =   2.5000000000000E+04
(PID.TID 0000.0001) %MON XC_sd                        =   1.4430869689662E+04
(PID.TID 0000.0001) %MON XG_max                       =   4.9000000000000E+04
(PID.TID 0000.0001) %MON XG_min                       =   1.0000000000000E+03
(PID.TID 0000.0001) %MON XG_mean                      =   2.5000000000000E+04
(PID.TID 0000.0001) %MON XG_sd                        =   1.4142135623731E+04
(PID.TID 0000.0001) %MON DXC_max                      =   1.0000000000000E+03
(PID.TID 0000.0001) %MON DXC_min                      =   1.0000000000000E+03
(PID.TID 0000.0001) %MON DXC_mean                     =   1.0000000000000E+03
(PID.TID 0000.0001) %MON DXC_sd                       =   0.0000000000000E+00
(PID.TID 0000.0001) %MON DXF_max                      =   1.0000000000000E+03
(PID.TID 0000.0001) %MON DXF_min                      =   1.0000000000000E+03
(PID.TID 0000.0001) %MON DXF_mean                     =   1.0000000000000E+03
(PID.TID 0000.0001) %MON DXF_sd                       =   0.0000000000000E+00
(PID.TID 0000.0001) %MON DXG_max                      =   1.0000000000000E+03
(PID.TID 0000.0001) %MON DXG_min                      =   1.0000000000000E+03
(PID.TID 0000.0001) %MON DXG_mean                     =   1.0000000000000E+03
(PID.TID 0000.0001) %MON DXG_sd                       =   0.0000000000000E+00
(PID.TID 0000.0001) %MON DXV_max                      =   1.0000000000000E+03
(PID.TID 0000.0001) %MON DXV_min                      =   1.0000000000000E+03
(PID.TID 0000.0001) %MON DXV_mean                     =   1.0000000000000E+03
(PID.TID 0000.0001) %MON DXV_sd                       =   0.0000000000000E+00
(PID.TID 0000.0001) %MON YC_max                       =   2.5500000000000E+04
(PID.TID 0000.0001) %MON YC_min                       =   5.0000000000000E+02
(PID.TID 0000.0001) %MON YC_mean                      =   1.3000000000000E+04
(PID.TID 0000.0001) %MON YC_sd                        =   7.5000000000000E+03
(PID.TID 0000.0001) %MON YG_max                       =   2.5000000000000E+04
(PID.TID 0000.0001) %MON YG_min                       =   1.0000000000000E+03
(PID.TID 0000.0001) %MON YG_mean                      =   1.3000000000000E+04
(PID.TID 0000.0001) %MON YG_sd                        =   7.2111025509280E+03
(PID.TID 0000.0001) %MON DYC_max                      =   1.0000000000000E+03
(PID.TID 0000.0001) %MON DYC_min                      =   1.0000000000000E+03
(PID.TID 0000.0001) %MON DYC_mean                     =   1.0000000000000E+03
(PID.TID 0000.0001) %MON DYC_sd                       =   0.0000000000000E+00
(PID.TID 0000.0001) %MON DYF_max                      =   1.0000000000000E+03
(PID.TID 0000.0001) %MON DYF_min                      =   1.0000000000000E+03
(PID.TID 0000.0001) %MON DYF_mean                     =   1.0000000000000E+03
(PID.TID 0000.0001) %MON DYF_sd                       =   0.0000000000000E+00
(PID.TID 0000.0001) %MON DYG_max                      =   1.0000000000000E+03
(PID.TID 0000.0001) %MON DYG_min                      =   1.0000000000000E+03
(PID.TID 0000.0001) %MON DYG_mean                     =   1.0000000000000E+03
(PID.TID 0000.0001) %MON DYG_sd                       =   0.0000000000000E+00
(PID.TID 0000.0001) %MON DYU_max                      =   1.0000000000000E+03
(PID.TID 0000.0001) %MON DYU_min                      =   1.0000000000000E+03
(PID.TID 0000.0001) %MON DYU_mean                     =   1.0000000000000E+03
(PID.TID 0000.0001) %MON DYU_sd                       =   0.0000000000000E+00
(PID.TID 0000.0001) %MON RA_max                       =   1.0000000000000E+06
(PID.TID 0000.0001) %MON RA_min                       =   1.0000000000000E+06
(PID.TID 0000.0001) %MON RA_mean                      =   1.0000000000000E+06
(PID.TID 0000.0001) %MON RA_sd                        =   0.0000000000000E+00
(PID.TID 0000.0001) %MON RAW_max                      =   1.0000000000000E+06
(PID.TID 0000.0001) %MON RAW_min                      =   1.0000000000000E+06
(PID.TID 0000.0001) %MON RAW_mean                     =   1.0000000000000E+06
(PID.TID 0000.0001) %MON RAW_sd                       =   0.0000000000000E+00
(PID.TID 0000.0001) %MON RAS_max                      =   1.0000000000000E+06
(PID.TID 0000.0001) %MON RAS_min                      =   1.0000000000000E+06
(PID.TID 0000.0001) %MON RAS_mean                     =   1.0000000000000E+06
(PID.TID 0000.0001) %MON RAS_sd                       =   0.0000000000000E+00
(PID.TID 0000.0001) %MON RAZ_max                      =   1.0000000000000E+06
(PID.TID 0000.0001) %MON RAZ_min                      =   1.0000000000000E+06
(PID.TID 0000.0001) %MON RAZ_mean                     =   1.0000000000000E+06
(PID.TID 0000.0001) %MON RAZ_sd                       =   0.0000000000000E+00
(PID.TID 0000.0001) %MON AngleCS_max                  =   1.0000000000000E+00
(PID.TID 0000.0001) %MON AngleCS_min                  =   1.0000000000000E+00
(PID.TID 0000.0001) %MON AngleCS_mean                 =   1.0000000000000E+00
(PID.TID 0000.0001) %MON AngleCS_sd                   =   0.0000000000000E+00
(PID.TID 0000.0001) %MON AngleSN_max                  =   0.0000000000000E+00
(PID.TID 0000.0001) %MON AngleSN_min                  =   0.0000000000000E+00
(PID.TID 0000.0001) %MON AngleSN_mean                 =   0.0000000000000E+00
(PID.TID 0000.0001) %MON AngleSN_sd                   =   0.0000000000000E+00
(PID.TID 0000.0001)  MDSREADFIELD: opening global file: topo_sl.bin
(PID.TID 0000.0001) // =======================================================
(PID.TID 0000.0001) // Field Model R_low (ini_masks_etc) at iteration          1
(PID.TID 0000.0001) // CMIN =         -2.000000000000000E+02
(PID.TID 0000.0001) // CMAX =         -2.000000000000000E+02
(PID.TID 0000.0001) // CINT =          0.000000000000000E+00
(PID.TID 0000.0001) // SYMBOLS (CMIN->CMAX): -abcdefghijklmnopqrstuvwxyz+
(PID.TID 0000.0001) //                  0.0: .
(PID.TID 0000.0001) // RANGE I (Lo:Hi:Step):(  -2:  53:   1)
(PID.TID 0000.0001) // RANGE J (Lo:Hi:Step):(  29:  -2:  -1)
(PID.TID 0000.0001) // RANGE K (Lo:Hi:Step):(   1:   1:   1)
(PID.TID 0000.0001) // =======================================================
(PID.TID 0000.0001) // =======================================================
(PID.TID 0000.0001) // END OF FIELD                                          =
(PID.TID 0000.0001) // =======================================================
(PID.TID 0000.0001) 
(PID.TID 0000.0001) // =======================================================
(PID.TID 0000.0001) // Field Model Ro_surf (ini_masks_etc) at iteration          1
(PID.TID 0000.0001) // CMIN =          1.000000000000000E+32
(PID.TID 0000.0001) // CMAX =         -1.000000000000000E+32
(PID.TID 0000.0001) // CINT =          0.000000000000000E+00
(PID.TID 0000.0001) // SYMBOLS (CMIN->CMAX): -abcdefghijklmnopqrstuvwxyz+
(PID.TID 0000.0001) //                  0.0: .
(PID.TID 0000.0001) // RANGE I (Lo:Hi:Step):(  -2:  53:   1)
(PID.TID 0000.0001) // RANGE J (Lo:Hi:Step):(  29:  -2:  -1)
(PID.TID 0000.0001) // RANGE K (Lo:Hi:Step):(   1:   1:   1)
(PID.TID 0000.0001) // =======================================================
(PID.TID 0000.0001) // =======================================================
(PID.TID 0000.0001) // END OF FIELD                                          =
(PID.TID 0000.0001) // =======================================================
(PID.TID 0000.0001) 
(PID.TID 0000.0001) // =======================================================
(PID.TID 0000.0001) // Field hFacC at iteration          1
(PID.TID 0000.0001) // CMIN =          1.000000000000000E+00
(PID.TID 0000.0001) // CMAX =          1.000000000000000E+00
(PID.TID 0000.0001) // CINT =          0.000000000000000E+00
(PID.TID 0000.0001) // SYMBOLS (CMIN->CMAX): -abcdefghijklmnopqrstuvwxyz+
(PID.TID 0000.0001) //                  0.0: .
(PID.TID 0000.0001) // RANGE I (Lo:Hi:Step):(  -2:  53:   1)
(PID.TID 0000.0001) // RANGE J (Lo:Hi:Step):(  29:  -2:  -1)
(PID.TID 0000.0001) // RANGE K (Lo:Hi:Step):(   1:   1:   1)
(PID.TID 0000.0001) // =======================================================
(PID.TID 0000.0001) // =======================================================
(PID.TID 0000.0001) // END OF FIELD                                          =
(PID.TID 0000.0001) // =======================================================
(PID.TID 0000.0001) 
(PID.TID 0000.0001) // =======================================================
(PID.TID 0000.0001) // Field hFacW at iteration          1
(PID.TID 0000.0001) // CMIN =          1.000000000000000E+00
(PID.TID 0000.0001) // CMAX =          1.000000000000000E+00
(PID.TID 0000.0001) // CINT =          0.000000000000000E+00
(PID.TID 0000.0001) // SYMBOLS (CMIN->CMAX): -abcdefghijklmnopqrstuvwxyz+
(PID.TID 0000.0001) //                  0.0: .
(PID.TID 0000.0001) // RANGE I (Lo:Hi:Step):(  -2:  53:   1)
(PID.TID 0000.0001) // RANGE J (Lo:Hi:Step):(  29:  -2:  -1)
(PID.TID 0000.0001) // RANGE K (Lo:Hi:Step):(   1:   1:   1)
(PID.TID 0000.0001) // =======================================================
(PID.TID 0000.0001) // =======================================================
(PID.TID 0000.0001) // END OF FIELD                                          =
(PID.TID 0000.0001) // =======================================================
(PID.TID 0000.0001) 
(PID.TID 0000.0001) // =======================================================
(PID.TID 0000.0001) // Field hFacS at iteration          1
(PID.TID 0000.0001) // CMIN =          1.000000000000000E+00
(PID.TID 0000.0001) // CMAX =          1.000000000000000E+00
(PID.TID 0000.0001) // CINT =          0.000000000000000E+00
(PID.TID 0000.0001) // SYMBOLS (CMIN->CMAX): -abcdefghijklmnopqrstuvwxyz+
(PID.TID 0000.0001) //                  0.0: .
(PID.TID 0000.0001) // RANGE I (Lo:Hi:Step):(  -2:  53:   1)
(PID.TID 0000.0001) // RANGE J (Lo:Hi:Step):(  29:  -2:  -1)
(PID.TID 0000.0001) // RANGE K (Lo:Hi:Step):(   1:   1:   1)
(PID.TID 0000.0001) // =======================================================
(PID.TID 0000.0001) // =======================================================
(PID.TID 0000.0001) // END OF FIELD                                          =
(PID.TID 0000.0001) // =======================================================
(PID.TID 0000.0001) 
(PID.TID 0000.0001) 
(PID.TID 0000.0001) // ===================================
(PID.TID 0000.0001) // GAD parameters :
(PID.TID 0000.0001) // ===================================
(PID.TID 0000.0001) tempAdvScheme =   /* Temp. Horiz.Advection scheme selector */
(PID.TID 0000.0001)                      33
(PID.TID 0000.0001)     ;
(PID.TID 0000.0001) tempVertAdvScheme =   /* Temp. Vert. Advection scheme selector */
(PID.TID 0000.0001)                      33
(PID.TID 0000.0001)     ;
(PID.TID 0000.0001) tempMultiDimAdvec =   /* use Muti-Dim Advec method for Temp */
(PID.TID 0000.0001)                   T
(PID.TID 0000.0001)     ;
(PID.TID 0000.0001) tempAdamsBashforth =   /* use Adams-Bashforth time-stepping for Temp */
(PID.TID 0000.0001)                   F
(PID.TID 0000.0001)     ;
(PID.TID 0000.0001) saltAdvScheme =   /* Salt. Horiz.advection scheme selector */
(PID.TID 0000.0001)                      33
(PID.TID 0000.0001)     ;
(PID.TID 0000.0001) saltVertAdvScheme =   /* Salt. Vert. Advection scheme selector */
(PID.TID 0000.0001)                      33
(PID.TID 0000.0001)     ;
(PID.TID 0000.0001) saltMultiDimAdvec =   /* use Muti-Dim Advec method for Salt */
(PID.TID 0000.0001)                   T
(PID.TID 0000.0001)     ;
(PID.TID 0000.0001) saltAdamsBashforth =   /* use Adams-Bashforth time-stepping for Salt */
(PID.TID 0000.0001)                   F
(PID.TID 0000.0001)     ;
(PID.TID 0000.0001) // ===================================
(PID.TID 0000.0001) ------------------------------------------------------------
(PID.TID 0000.0001) DIAGNOSTICS_SET_LEVELS: done
(PID.TID 0000.0001)  Total Nb of available Diagnostics: ndiagt= 110
(PID.TID 0000.0001)  write list of available Diagnostics to file: available_diagnostics.log
(PID.TID 0000.0001) SETDIAG: Allocate 40 Levels for Diagnostic #  55 UVELSLT
(PID.TID 0000.0001) SETDIAG: Allocate 40 Levels for Diagnostic #  56 VVELSLT
(PID.TID 0000.0001) SETDIAG: Allocate 40 Levels for Diagnostic #  57 WVELSLT
(PID.TID 0000.0001) SETDIAG: Allocate 40 Levels for Diagnostic #  52 UVELTH
(PID.TID 0000.0001) SETDIAG: Allocate 40 Levels for Diagnostic #  53 VVELTH
(PID.TID 0000.0001) SETDIAG: Allocate 40 Levels for Diagnostic #  54 WVELTH
(PID.TID 0000.0001)   space allocated for all diagnostics:   240 levels
(PID.TID 0000.0001)   set mate pointer for diag #  55  UVELSLT  , Parms: UU   056MR
(PID.TID 0000.0001)   set mate pointer for diag #  56  VVELSLT  , Parms: VV   055MR
(PID.TID 0000.0001)   set mate pointer for diag #  52  UVELTH   , Parms: UU   053MR
(PID.TID 0000.0001)   set mate pointer for diag #  53  VVELTH   , Parms: VV   052MR
(PID.TID 0000.0001) DIAGNOSTICS_SET_POINTERS: Set levels for Outp.Stream: spiceflx
(PID.TID 0000.0001)  Levels:       1.   2.   3.   4.   5.   6.   7.   8.   9.  10.  11.  12.  13.  14.  15.  16.  17.  18.  19.  20.
(PID.TID 0000.0001)  Levels:      21.  22.  23.  24.  25.  26.  27.  28.  29.  30.  31.  32.  33.  34.  35.  36.  37.  38.  39.  40.
(PID.TID 0000.0001) DIAGNOSTICS_SET_POINTERS: Set levels for Outp.Stream: thetaflx
(PID.TID 0000.0001)  Levels:       1.   2.   3.   4.   5.   6.   7.   8.   9.  10.  11.  12.  13.  14.  15.  16.  17.  18.  19.  20.
(PID.TID 0000.0001)  Levels:      21.  22.  23.  24.  25.  26.  27.  28.  29.  30.  31.  32.  33.  34.  35.  36.  37.  38.  39.  40.
(PID.TID 0000.0001) DIAGNOSTICS_SET_POINTERS: done
(PID.TID 0000.0001) ------------------------------------------------------------
(PID.TID 0000.0001)   space allocated for all stats-diags:     0 levels
(PID.TID 0000.0001) DIAGSTATS_SET_POINTERS: done
(PID.TID 0000.0001) ------------------------------------------------------------
(PID.TID 0000.0001) %MON fCori_max                    =   7.2900000000000E-05
(PID.TID 0000.0001) %MON fCori_min                    =   7.2900000000000E-05
(PID.TID 0000.0001) %MON fCori_mean                   =   7.2900000000001E-05
(PID.TID 0000.0001) %MON fCori_sd                     =   6.6407383064737E-19
(PID.TID 0000.0001) %MON fCoriG_max                   =   7.2900000000000E-05
(PID.TID 0000.0001) %MON fCoriG_min                   =   7.2900000000000E-05
(PID.TID 0000.0001) %MON fCoriG_mean                  =   7.2900000000001E-05
(PID.TID 0000.0001) %MON fCoriG_sd                    =   6.6407383064737E-19
(PID.TID 0000.0001) %MON fCoriCos_max                 =   0.0000000000000E+00
(PID.TID 0000.0001) %MON fCoriCos_min                 =   0.0000000000000E+00
(PID.TID 0000.0001) %MON fCoriCos_mean                =   0.0000000000000E+00
(PID.TID 0000.0001) %MON fCoriCos_sd                  =   0.0000000000000E+00
(PID.TID 0000.0001) INI_CG2D: CG2D normalisation factor =  5.0000000000000001E-03
(PID.TID 0000.0001) 
(PID.TID 0000.0001) CONFIG_CHECK: OK
(PID.TID 0000.0001) // =======================================================
(PID.TID 0000.0001) // Model configuration
(PID.TID 0000.0001) // =======================================================
(PID.TID 0000.0001) //
(PID.TID 0000.0001) // "Physical" paramters ( PARM01 in namelist )
(PID.TID 0000.0001) //
(PID.TID 0000.0001) buoyancyRelation = OCEANIC
(PID.TID 0000.0001) fluidIsAir  =  /* fluid major constituent is Air */
(PID.TID 0000.0001)                   F
(PID.TID 0000.0001)     ;
(PID.TID 0000.0001) fluidIsWater=  /* fuild major constituent is Water */
(PID.TID 0000.0001)                   T
(PID.TID 0000.0001)     ;
(PID.TID 0000.0001) usingPCoords =  /* use p (or p*) vertical coordinate */
(PID.TID 0000.0001)                   F
(PID.TID 0000.0001)     ;
(PID.TID 0000.0001) usingZCoords =  /* use z (or z*) vertical coordinate */
(PID.TID 0000.0001)                   T
(PID.TID 0000.0001)     ;
(PID.TID 0000.0001) tRef =   /* Reference temperature profile ( oC or oK ) */
(PID.TID 0000.0001)                 2.900000000000000E+01,      /* K =  1 */
(PID.TID 0000.0001)                 2.800000000000000E+01,      /* K =  2 */
(PID.TID 0000.0001)                 2.700000000000000E+01,      /* K =  3 */
(PID.TID 0000.0001)                 2.600000000000000E+01,      /* K =  4 */
(PID.TID 0000.0001)                 2.500000000000000E+01,      /* K =  5 */
(PID.TID 0000.0001)                 2.400000000000000E+01,      /* K =  6 */
(PID.TID 0000.0001)                 2.300000000000000E+01,      /* K =  7 */
(PID.TID 0000.0001)                 2.200000000000000E+01,      /* K =  8 */
(PID.TID 0000.0001)                 2.100000000000000E+01,      /* K =  9 */
(PID.TID 0000.0001)                 2.000000000000000E+01,      /* K = 10 */
(PID.TID 0000.0001)                 1.900000000000000E+01,      /* K = 11 */
(PID.TID 0000.0001)                 1.800000000000000E+01,      /* K = 12 */
(PID.TID 0000.0001)                 1.700000000000000E+01,      /* K = 13 */
(PID.TID 0000.0001)                 1.600000000000000E+01,      /* K = 14 */
(PID.TID 0000.0001)                 1.500000000000000E+01,      /* K = 15 */
(PID.TID 0000.0001)                 1.400000000000000E+01,      /* K = 16 */
(PID.TID 0000.0001)                 1.300000000000000E+01,      /* K = 17 */
(PID.TID 0000.0001)                 1.200000000000000E+01,      /* K = 18 */
(PID.TID 0000.0001)                 1.100000000000000E+01,      /* K = 19 */
(PID.TID 0000.0001)                 1.000000000000000E+01,      /* K = 20 */
(PID.TID 0000.0001)                 9.000000000000000E+00,      /* K = 21 */
(PID.TID 0000.0001)                 8.000000000000000E+00,      /* K = 22 */
(PID.TID 0000.0001)                 7.000000000000000E+00,      /* K = 23 */
(PID.TID 0000.0001)                 6.000000000000000E+00,      /* K = 24 */
(PID.TID 0000.0001)                 5.000000000000000E+00,      /* K = 25 */
(PID.TID 0000.0001)                 4.000000000000000E+00,      /* K = 26 */
(PID.TID 0000.0001)                 3.000000000000000E+00,      /* K = 27 */
(PID.TID 0000.0001)                 2.000000000000000E+00,      /* K = 28 */
(PID.TID 0000.0001)                 1.000000000000000E+00,      /* K = 29 */
(PID.TID 0000.0001)                 0.000000000000000E+00,      /* K = 30 */
(PID.TID 0000.0001)                -1.000000000000000E+00,      /* K = 31 */
(PID.TID 0000.0001)                -2.000000000000000E+00,      /* K = 32 */
(PID.TID 0000.0001)                -3.000000000000000E+00,      /* K = 33 */
(PID.TID 0000.0001)                -4.000000000000000E+00,      /* K = 34 */
(PID.TID 0000.0001)                -5.000000000000000E+00,      /* K = 35 */
(PID.TID 0000.0001)                -6.000000000000000E+00,      /* K = 36 */
(PID.TID 0000.0001)                -7.000000000000000E+00,      /* K = 37 */
(PID.TID 0000.0001)                -8.000000000000000E+00,      /* K = 38 */
(PID.TID 0000.0001)                -9.000000000000000E+00,      /* K = 39 */
(PID.TID 0000.0001)                -1.000000000000000E+01       /* K = 40 */
(PID.TID 0000.0001)     ;
(PID.TID 0000.0001) sRef =   /* Reference salinity profile ( ppt ) */
(PID.TID 0000.0001)    40 @  0.000000000000000E+00              /* K =  1: 40 */
(PID.TID 0000.0001)     ;
(PID.TID 0000.0001) viscAh =   /* Lateral eddy viscosity ( m^2/s ) */
(PID.TID 0000.0001)                 3.000000000000000E+01
(PID.TID 0000.0001)     ;
(PID.TID 0000.0001) viscAhMax =   /* Maximum lateral eddy viscosity ( m^2/s ) */
(PID.TID 0000.0001)                 1.000000000000000E+21
(PID.TID 0000.0001)     ;
(PID.TID 0000.0001) viscAhGrid =   /* Grid dependent lateral eddy viscosity ( non-dim. ) */
(PID.TID 0000.0001)                 0.000000000000000E+00
(PID.TID 0000.0001)     ;
(PID.TID 0000.0001) useFullLeith =   /* Use Full Form of Leith Viscosity on/off flag*/
(PID.TID 0000.0001)                   T
(PID.TID 0000.0001)     ;
(PID.TID 0000.0001) useStrainTensionVisc =   /* Use Strain-Tension Form of Viscous Operator on/off flag*/
(PID.TID 0000.0001)                   F
(PID.TID 0000.0001)     ;
(PID.TID 0000.0001) viscC2leith = /* Leith harmonic viscosity factor (on grad(vort),non-dim.) */
(PID.TID 0000.0001)                 5.000000000000000E+00
(PID.TID 0000.0001)     ;
(PID.TID 0000.0001) viscC2leithD = /* Leith harmonic viscosity factor (on grad(div),non-dim.) */
(PID.TID 0000.0001)                 0.000000000000000E+00
(PID.TID 0000.0001)     ;
(PID.TID 0000.0001) viscC2smag =   /* Smagorinsky harmonic viscosity factor (non-dim.) */
(PID.TID 0000.0001)                 0.000000000000000E+00
(PID.TID 0000.0001)     ;
(PID.TID 0000.0001) viscA4 =   /* Lateral biharmonic viscosity ( m^4/s ) */
(PID.TID 0000.0001)                 0.000000000000000E+00
(PID.TID 0000.0001)     ;
(PID.TID 0000.0001) viscA4Max =   /* Maximum biharmonic viscosity ( m^2/s ) */
(PID.TID 0000.0001)                 1.000000000000000E+21
(PID.TID 0000.0001)     ;
(PID.TID 0000.0001) viscA4Grid =   /* Grid dependent biharmonic viscosity ( non-dim. ) */
(PID.TID 0000.0001)                 0.000000000000000E+00
(PID.TID 0000.0001)     ;
(PID.TID 0000.0001) viscC4leith = /* Leith biharm viscosity factor (on grad(vort), non-dim.) */
(PID.TID 0000.0001)                 0.000000000000000E+00
(PID.TID 0000.0001)     ;
(PID.TID 0000.0001) viscC4leithD = /* Leith biharm viscosity factor (on grad(div), non-dim.) */
(PID.TID 0000.0001)                 0.000000000000000E+00
(PID.TID 0000.0001)     ;
(PID.TID 0000.0001) viscC4Smag = /* Smagorinsky biharm viscosity factor (non-dim) */
(PID.TID 0000.0001)                 0.000000000000000E+00
(PID.TID 0000.0001)     ;
(PID.TID 0000.0001) no_slip_sides =  /* Viscous BCs: No-slip sides */
(PID.TID 0000.0001)                   F
(PID.TID 0000.0001)     ;
(PID.TID 0000.0001) viscAr =   /* Vertical eddy viscosity ( units of r^2/s ) */
(PID.TID 0000.0001)                 5.000000000000000E-03
(PID.TID 0000.0001)     ;
(PID.TID 0000.0001) no_slip_bottom =  /* Viscous BCs: No-slip bottom */
(PID.TID 0000.0001)                   F
(PID.TID 0000.0001)     ;
(PID.TID 0000.0001) diffKhT =   /* Laplacian diffusion of heat laterally ( m^2/s ) */
(PID.TID 0000.0001)                 0.000000000000000E+00
(PID.TID 0000.0001)     ;
(PID.TID 0000.0001) diffK4T =   /* Bihaarmonic diffusion of heat laterally ( m^4/s ) */
(PID.TID 0000.0001)                 0.000000000000000E+00
(PID.TID 0000.0001)     ;
(PID.TID 0000.0001) diffKhS =   /* Laplacian diffusion of salt laterally ( m^2/s ) */
(PID.TID 0000.0001)                 0.000000000000000E+00
(PID.TID 0000.0001)     ;
(PID.TID 0000.0001) diffK4S =   /* Bihaarmonic diffusion of salt laterally ( m^4/s ) */
(PID.TID 0000.0001)                 0.000000000000000E+00
(PID.TID 0000.0001)     ;
(PID.TID 0000.0001) diffKrNrT = /* vertical profile of vertical diffusion of Temp ( m^2/s )*/
(PID.TID 0000.0001)    40 @  0.000000000000000E+00              /* K =  1: 40 */
(PID.TID 0000.0001)     ;
(PID.TID 0000.0001) diffKrNrS = /* vertical profile of vertical diffusion of Salt ( m^2/s )*/
(PID.TID 0000.0001)    40 @  0.000000000000000E+00              /* K =  1: 40 */
(PID.TID 0000.0001)     ;
(PID.TID 0000.0001) diffKrBL79surf =   /* Surface diffusion for Bryan and Lewis 1979 ( m^2/s ) */
(PID.TID 0000.0001)                 0.000000000000000E+00
(PID.TID 0000.0001)     ;
(PID.TID 0000.0001) diffKrBL79deep =   /* Deep diffusion for Bryan and Lewis 1979 ( m^2/s ) */
(PID.TID 0000.0001)                 0.000000000000000E+00
(PID.TID 0000.0001)     ;
(PID.TID 0000.0001) diffKrBL79scl =   /* Depth scale for Bryan and Lewis 1979 ( m ) */
(PID.TID 0000.0001)                 2.000000000000000E+02
(PID.TID 0000.0001)     ;
(PID.TID 0000.0001) diffKrBL79Ho =   /* Turning depth for Bryan and Lewis 1979 ( m ) */
(PID.TID 0000.0001)                -2.000000000000000E+03
(PID.TID 0000.0001)     ;
(PID.TID 0000.0001)  Equation of State : eosType = LINEAR
(PID.TID 0000.0001) tAlpha =   /* Linear EOS thermal expansion coefficient ( 1/degree ) */
(PID.TID 0000.0001)                 2.000000000000000E-04
(PID.TID 0000.0001)     ;
(PID.TID 0000.0001) sBeta =   /* Linear EOS haline contraction coefficient ( 1/ppt ) */
(PID.TID 0000.0001)                 0.000000000000000E+00
(PID.TID 0000.0001)     ;
(PID.TID 0000.0001) rhonil =   /* Reference density ( kg/m^3 ) */
(PID.TID 0000.0001)                 1.035000000000000E+03
(PID.TID 0000.0001)     ;
(PID.TID 0000.0001) rhoConst =   /* Reference density ( kg/m^3 ) */
(PID.TID 0000.0001)                 1.035000000000000E+03
(PID.TID 0000.0001)     ;
(PID.TID 0000.0001) rhoConstFresh =   /* Reference density ( kg/m^3 ) */
(PID.TID 0000.0001)                 1.035000000000000E+03
(PID.TID 0000.0001)     ;
(PID.TID 0000.0001) gravity =   /* Gravitational acceleration ( m/s^2 ) */
(PID.TID 0000.0001)                 9.810000000000000E+00
(PID.TID 0000.0001)     ;
(PID.TID 0000.0001) gBaro =   /* Barotropic gravity ( m/s^2 ) */
(PID.TID 0000.0001)                 9.810000000000000E+00
(PID.TID 0000.0001)     ;
(PID.TID 0000.0001) rotationPeriod =   /* Rotation Period ( s ) */
(PID.TID 0000.0001)                 8.640000000000000E+04
(PID.TID 0000.0001)     ;
(PID.TID 0000.0001) omega =   /* Angular velocity ( rad/s ) */
(PID.TID 0000.0001)                 7.272205216643040E-05
(PID.TID 0000.0001)     ;
(PID.TID 0000.0001) f0 =   /* Reference coriolis parameter ( 1/s ) */
(PID.TID 0000.0001)                 7.290000000000000E-05
(PID.TID 0000.0001)     ;
(PID.TID 0000.0001) beta =   /* Beta ( 1/(m.s) ) */
(PID.TID 0000.0001)                 0.000000000000000E+00
(PID.TID 0000.0001)     ;
(PID.TID 0000.0001) freeSurfFac =   /* Implicit free surface factor */
(PID.TID 0000.0001)                 1.000000000000000E+00
(PID.TID 0000.0001)     ;
(PID.TID 0000.0001) implicitFreeSurface =   /* Implicit free surface on/off flag */
(PID.TID 0000.0001)                   T
(PID.TID 0000.0001)     ;
(PID.TID 0000.0001) rigidLid =   /* Rigid lid on/off flag */
(PID.TID 0000.0001)                   F
(PID.TID 0000.0001)     ;
(PID.TID 0000.0001) implicSurfPress =   /* Surface Pressure implicit factor (0-1)*/
(PID.TID 0000.0001)                 1.000000000000000E+00
(PID.TID 0000.0001)     ;
(PID.TID 0000.0001) implicDiv2Dflow =   /* Barot. Flow Div. implicit factor (0-1)*/
(PID.TID 0000.0001)                 1.000000000000000E+00
(PID.TID 0000.0001)     ;
(PID.TID 0000.0001) exactConserv =   /* Exact Volume Conservation on/off flag*/
(PID.TID 0000.0001)                   F
(PID.TID 0000.0001)     ;
(PID.TID 0000.0001) uniformLin_PhiSurf =   /* use uniform Bo_surf on/off flag*/
(PID.TID 0000.0001)                   T
(PID.TID 0000.0001)     ;
(PID.TID 0000.0001) nonlinFreeSurf =   /* Non-linear Free Surf. options (-1,0,1,2,3)*/
(PID.TID 0000.0001)                       0
(PID.TID 0000.0001)     ;
(PID.TID 0000.0001)      -1,0= Off ; 1,2,3= On, 2=+rescale gU,gV, 3=+update cg2d solv.
(PID.TID 0000.0001) hFacInf =   /* lower threshold for hFac (nonlinFreeSurf only)*/
(PID.TID 0000.0001)                 2.000000000000000E-01
(PID.TID 0000.0001)     ;
(PID.TID 0000.0001) hFacSup =   /* upper threshold for hFac (nonlinFreeSurf only)*/
(PID.TID 0000.0001)                 2.000000000000000E+00
(PID.TID 0000.0001)     ;
(PID.TID 0000.0001) select_rStar =   /* r* Coordinate options (not yet implemented)*/
(PID.TID 0000.0001)                       0
(PID.TID 0000.0001)     ;
(PID.TID 0000.0001) useRealFreshWaterFlux =   /* Real Fresh Water Flux on/off flag*/
(PID.TID 0000.0001)                   F
(PID.TID 0000.0001)     ;
(PID.TID 0000.0001) convertFW2Salt = /* convert F.W. Flux to Salt Flux (-1=use local S)(ppt)*/
(PID.TID 0000.0001)                 3.500000000000000E+01
(PID.TID 0000.0001)     ;
(PID.TID 0000.0001) nonHydrostatic =  /* Non-Hydrostatic on/off flag */
(PID.TID 0000.0001)                   F
(PID.TID 0000.0001)     ;
(PID.TID 0000.0001) momStepping =  /* Momentum equation on/off flag */
(PID.TID 0000.0001)                   T
(PID.TID 0000.0001)     ;
(PID.TID 0000.0001) momAdvection =  /* Momentum advection on/off flag */
(PID.TID 0000.0001)                   T
(PID.TID 0000.0001)     ;
(PID.TID 0000.0001) momViscosity =  /* Momentum viscosity on/off flag */
(PID.TID 0000.0001)                   T
(PID.TID 0000.0001)     ;
(PID.TID 0000.0001) momImplVertAdv =/* Momentum implicit vert. advection on/off*/
(PID.TID 0000.0001)                   F
(PID.TID 0000.0001)     ;
(PID.TID 0000.0001) implicitViscosity = /* Implicit viscosity on/off flag */
(PID.TID 0000.0001)                   T
(PID.TID 0000.0001)     ;
(PID.TID 0000.0001) useCoriolis =  /* Coriolis on/off flag */
(PID.TID 0000.0001)                   T
(PID.TID 0000.0001)     ;
(PID.TID 0000.0001) useCDscheme =  /* CD scheme on/off flag */
(PID.TID 0000.0001)                   F
(PID.TID 0000.0001)     ;
(PID.TID 0000.0001) useJamartWetPoints= /* Coriolis WetPoints method flag */
(PID.TID 0000.0001)                   T
(PID.TID 0000.0001)     ;
(PID.TID 0000.0001) useJamartMomAdv= /* V.I. Non-linear terms Jamart flag */
(PID.TID 0000.0001)                   F
(PID.TID 0000.0001)     ;
(PID.TID 0000.0001) SadournyCoriolis= /* Sadourny Coriolis discr. flag */
(PID.TID 0000.0001)                   F
(PID.TID 0000.0001)     ;
(PID.TID 0000.0001) upwindVorticity= /* Upwind bias vorticity flag */
(PID.TID 0000.0001)                   F
(PID.TID 0000.0001)     ;
(PID.TID 0000.0001) useAbsVorticity= /* Work with f+zeta in Coriolis */
(PID.TID 0000.0001)                   F
(PID.TID 0000.0001)     ;
(PID.TID 0000.0001) highOrderVorticity= /* High order interp. of vort. flag */
(PID.TID 0000.0001)                   F
(PID.TID 0000.0001)     ;
(PID.TID 0000.0001) upwindShear= /* Upwind vertical Shear advection flag */
(PID.TID 0000.0001)                   F
(PID.TID 0000.0001)     ;
(PID.TID 0000.0001) momForcing =  /* Momentum forcing on/off flag */
(PID.TID 0000.0001)                   T
(PID.TID 0000.0001)     ;
(PID.TID 0000.0001) momPressureForcing =  /* Momentum pressure term on/off flag */
(PID.TID 0000.0001)                   T
(PID.TID 0000.0001)     ;
(PID.TID 0000.0001) staggerTimeStep =   /* Stagger time stepping on/off flag */
(PID.TID 0000.0001)                   T
(PID.TID 0000.0001)     ;
(PID.TID 0000.0001) multiDimAdvection =   /* enable/disable Multi-Dim Advection */
(PID.TID 0000.0001)                   T
(PID.TID 0000.0001)     ;
(PID.TID 0000.0001) useMultiDimAdvec =   /* Multi-Dim Advection is/is-not used */
(PID.TID 0000.0001)                   T
(PID.TID 0000.0001)     ;
(PID.TID 0000.0001) implicitDiffusion =/* Implicit Diffusion on/off flag */
(PID.TID 0000.0001)                   T
(PID.TID 0000.0001)     ;
(PID.TID 0000.0001) tempStepping =  /* Temperature equation on/off flag */
(PID.TID 0000.0001)                   T
(PID.TID 0000.0001)     ;
(PID.TID 0000.0001) tempAdvection=  /* Temperature advection on/off flag */
(PID.TID 0000.0001)                   T
(PID.TID 0000.0001)     ;
(PID.TID 0000.0001) tempImplVertAdv =/* Temp. implicit vert. advection on/off */
(PID.TID 0000.0001)                   F
(PID.TID 0000.0001)     ;
(PID.TID 0000.0001) tempForcing  =  /* Temperature forcing on/off flag */
(PID.TID 0000.0001)                   T
(PID.TID 0000.0001)     ;
(PID.TID 0000.0001) saltStepping =  /* Salinity equation on/off flag */
(PID.TID 0000.0001)                   T
(PID.TID 0000.0001)     ;
(PID.TID 0000.0001) saltAdvection=  /* Salinity advection on/off flag */
(PID.TID 0000.0001)                   T
(PID.TID 0000.0001)     ;
(PID.TID 0000.0001) saltImplVertAdv =/* Sali. implicit vert. advection on/off */
(PID.TID 0000.0001)                   F
(PID.TID 0000.0001)     ;
(PID.TID 0000.0001) saltForcing  =  /* Salinity forcing on/off flag */
(PID.TID 0000.0001)                   T
(PID.TID 0000.0001)     ;
(PID.TID 0000.0001)  debugMode  =  /* Debug Mode on/off flag */
(PID.TID 0000.0001)                   F
(PID.TID 0000.0001)     ;
(PID.TID 0000.0001)    debLevA  =  /* 1rst level of debugging */
(PID.TID 0000.0001)                       1
(PID.TID 0000.0001)     ;
(PID.TID 0000.0001)    debLevB  =  /* 2nd  level of debugging */
(PID.TID 0000.0001)                       2
(PID.TID 0000.0001)     ;
(PID.TID 0000.0001)  debugLevel =  /* select debugging level */
(PID.TID 0000.0001)                       1
(PID.TID 0000.0001)     ;
(PID.TID 0000.0001) //
(PID.TID 0000.0001) // Elliptic solver(s) paramters ( PARM02 in namelist )
(PID.TID 0000.0001) //
(PID.TID 0000.0001) cg2dMaxIters =   /* Upper limit on 2d con. grad iterations  */
(PID.TID 0000.0001)                    1000
(PID.TID 0000.0001)     ;
(PID.TID 0000.0001) cg2dChkResFreq =   /* 2d con. grad convergence test frequency */
(PID.TID 0000.0001)                       1
(PID.TID 0000.0001)     ;
(PID.TID 0000.0001) cg2dTargetResidual =   /* 2d con. grad target residual  */
(PID.TID 0000.0001)                 9.999999999999999E-12
(PID.TID 0000.0001)     ;
(PID.TID 0000.0001) cg2dTargetResWunit =   /* CG2d target residual [W units] */
(PID.TID 0000.0001)                -1.000000000000000E+00
(PID.TID 0000.0001)     ;
(PID.TID 0000.0001) cg2dPreCondFreq =   /* Freq. for updating cg2d preconditioner */
(PID.TID 0000.0001)                       1
(PID.TID 0000.0001)     ;
(PID.TID 0000.0001) //
(PID.TID 0000.0001) // Time stepping paramters ( PARM03 in namelist )
(PID.TID 0000.0001) //
(PID.TID 0000.0001) nIter0 =   /* Run starting timestep number  */
(PID.TID 0000.0001)                      36
(PID.TID 0000.0001)     ;
(PID.TID 0000.0001) nTimeSteps =   /* Number of timesteps */
(PID.TID 0000.0001)                      12
(PID.TID 0000.0001)     ;
(PID.TID 0000.0001) deltatTmom =   /* Momentum equation timestep ( s ) */
(PID.TID 0000.0001)                 1.200000000000000E+03
(PID.TID 0000.0001)     ;
(PID.TID 0000.0001) deltaTfreesurf =   /* FreeSurface equation timestep ( s ) */
(PID.TID 0000.0001)                 1.200000000000000E+03
(PID.TID 0000.0001)     ;
(PID.TID 0000.0001) dTtracerLev =   /* Tracer equation timestep ( s ) */
(PID.TID 0000.0001)    40 @  1.200000000000000E+03              /* K =  1: 40 */
(PID.TID 0000.0001)     ;
(PID.TID 0000.0001) deltatTClock  =   /* Model clock timestep ( s ) */
(PID.TID 0000.0001)                 1.200000000000000E+03
(PID.TID 0000.0001)     ;
(PID.TID 0000.0001) cAdjFreq =   /* Convective adjustment interval ( s ) */
(PID.TID 0000.0001)                 0.000000000000000E+00
(PID.TID 0000.0001)     ;
(PID.TID 0000.0001) forcing_In_AB =   /* put T,S Forcing in Adams-Bash. stepping */
(PID.TID 0000.0001)                   T
(PID.TID 0000.0001)     ;
(PID.TID 0000.0001) abEps =   /* Adams-Bashforth-2 stabilizing weight */
(PID.TID 0000.0001)                 1.000000000000000E-02
(PID.TID 0000.0001)     ;
(PID.TID 0000.0001) baseTime =   /* Model base time ( s ). */
(PID.TID 0000.0001)                 0.000000000000000E+00
(PID.TID 0000.0001)     ;
(PID.TID 0000.0001) startTime =   /* Run start time ( s ). */
(PID.TID 0000.0001)                 4.320000000000000E+04
(PID.TID 0000.0001)     ;
(PID.TID 0000.0001) endTime =   /* Integration ending time ( s ). */
(PID.TID 0000.0001)                 5.760000000000000E+04
(PID.TID 0000.0001)     ;
(PID.TID 0000.0001) pChkPtFreq =   /* Permanent restart/checkpoint file interval ( s ). */
(PID.TID 0000.0001)                 7.200000000000000E+03
(PID.TID 0000.0001)     ;
(PID.TID 0000.0001) chkPtFreq =   /* Rolling restart/checkpoint file interval ( s ). */
(PID.TID 0000.0001)                 0.000000000000000E+00
(PID.TID 0000.0001)     ;
(PID.TID 0000.0001) pickup_write_mdsio =   /* Model IO flag. */
(PID.TID 0000.0001)                   F
(PID.TID 0000.0001)     ;
(PID.TID 0000.0001) pickup_read_mdsio =   /* Model IO flag. */
(PID.TID 0000.0001)                   F
(PID.TID 0000.0001)     ;
(PID.TID 0000.0001) pickup_write_mnc =   /* Model IO flag. */
(PID.TID 0000.0001)                   T
(PID.TID 0000.0001)     ;
(PID.TID 0000.0001) pickup_read_mnc =   /* Model IO flag. */
(PID.TID 0000.0001)                   T
(PID.TID 0000.0001)     ;
(PID.TID 0000.0001) pickup_write_immed =   /* Model IO flag. */
(PID.TID 0000.0001)                   F
(PID.TID 0000.0001)     ;
(PID.TID 0000.0001) dumpFreq =   /* Model state write out interval ( s ). */
(PID.TID 0000.0001)                 7.200000000000000E+03
(PID.TID 0000.0001)     ;
(PID.TID 0000.0001) dumpInitAndLast= /* write out Initial & Last iter. model state */
(PID.TID 0000.0001)                   T
(PID.TID 0000.0001)     ;
(PID.TID 0000.0001) snapshot_mdsio =   /* Model IO flag. */
(PID.TID 0000.0001)                   F
(PID.TID 0000.0001)     ;
(PID.TID 0000.0001) snapshot_mnc =   /* Model IO flag. */
(PID.TID 0000.0001)                   T
(PID.TID 0000.0001)     ;
(PID.TID 0000.0001) monitorFreq =   /* Monitor output interval ( s ). */
(PID.TID 0000.0001)                 1.200000000000000E+03
(PID.TID 0000.0001)     ;
(PID.TID 0000.0001) monitor_stdio =   /* Model IO flag. */
(PID.TID 0000.0001)                   T
(PID.TID 0000.0001)     ;
(PID.TID 0000.0001) monitor_mnc =   /* Model IO flag. */
(PID.TID 0000.0001)                   F
(PID.TID 0000.0001)     ;
(PID.TID 0000.0001) externForcingPeriod =   /* forcing period (s) */
(PID.TID 0000.0001)                 0.000000000000000E+00
(PID.TID 0000.0001)     ;
(PID.TID 0000.0001) externForcingCycle =   /* period of the cyle (s). */
(PID.TID 0000.0001)                 0.000000000000000E+00
(PID.TID 0000.0001)     ;
(PID.TID 0000.0001) tauThetaClimRelax =   /* relaxation time scale (s) */
(PID.TID 0000.0001)                 0.000000000000000E+00
(PID.TID 0000.0001)     ;
(PID.TID 0000.0001) tauSaltClimRelax =   /* relaxation time scale (s) */
(PID.TID 0000.0001)                 0.000000000000000E+00
(PID.TID 0000.0001)     ;
(PID.TID 0000.0001) latBandClimRelax =   /* max. Lat. where relaxation */
(PID.TID 0000.0001)                 7.800000000000000E+04
(PID.TID 0000.0001)     ;
(PID.TID 0000.0001) //
(PID.TID 0000.0001) // Gridding paramters ( PARM04 in namelist )
(PID.TID 0000.0001) //
(PID.TID 0000.0001) usingCartesianGrid =   /* Cartesian coordinates flag ( True / False ) */
(PID.TID 0000.0001)                   T
(PID.TID 0000.0001)     ;
(PID.TID 0000.0001) usingSphericalPolarGrid =   /* Spherical coordinates flag ( True / False ) */
(PID.TID 0000.0001)                   F
(PID.TID 0000.0001)     ;
(PID.TID 0000.0001) usingCylindricalGrid =   /* Spherical coordinates flag ( True / False ) */
(PID.TID 0000.0001)                   F
(PID.TID 0000.0001)     ;
(PID.TID 0000.0001) Ro_SeaLevel =   /* r(1) ( units of r ) */
(PID.TID 0000.0001)                 0.000000000000000E+00
(PID.TID 0000.0001)     ;
(PID.TID 0000.0001) rkSign =   /* index orientation relative to vertical coordinate */
(PID.TID 0000.0001)                -1.000000000000000E+00
(PID.TID 0000.0001)     ;
(PID.TID 0000.0001) horiVertRatio =   /* Ratio on units : Horiz - Vertical */
(PID.TID 0000.0001)                 1.000000000000000E+00
(PID.TID 0000.0001)     ;
(PID.TID 0000.0001) drC =   /* C spacing ( units of r ) */
(PID.TID 0000.0001)                 2.500000000000000E+00,      /* K =  1 */
(PID.TID 0000.0001)    39 @  5.000000000000000E+00              /* K =  2: 40 */
(PID.TID 0000.0001)     ;
(PID.TID 0000.0001) drF =   /* W spacing ( units of r ) */
(PID.TID 0000.0001)    40 @  5.000000000000000E+00              /* K =  1: 40 */
(PID.TID 0000.0001)     ;
(PID.TID 0000.0001) delX =   /* U spacing ( m - cartesian, degrees - spherical ) */
(PID.TID 0000.0001)    50 @  1.000000000000000E+03              /* I =  1: 50 */
(PID.TID 0000.0001)     ;
(PID.TID 0000.0001) delY =   /* V spacing ( m - cartesian, degrees - spherical ) */
(PID.TID 0000.0001)    26 @  1.000000000000000E+03              /* J =  1: 26 */
(PID.TID 0000.0001)     ;
(PID.TID 0000.0001) phiMin =    /* South edge (ignored - cartesian, degrees - spherical ) */
(PID.TID 0000.0001)                 0.000000000000000E+00
(PID.TID 0000.0001)     ;
(PID.TID 0000.0001) thetaMin =    /* West edge ( ignored - cartesian, degrees - spherical ) */
(PID.TID 0000.0001)                 0.000000000000000E+00
(PID.TID 0000.0001)     ;
(PID.TID 0000.0001) rSphere =    /* Radius ( ignored - cartesian, m - spherical ) */
(PID.TID 0000.0001)                 6.370000000000000E+06
(PID.TID 0000.0001)     ;
(PID.TID 0000.0001) xcoord =   /* P-point X coord ( m - cartesian, degrees - spherical ) */
(PID.TID 0000.0001)                 5.000000000000000E+02,      /* I =  1 */
(PID.TID 0000.0001)                 1.500000000000000E+03,      /* I =  2 */
(PID.TID 0000.0001)                 2.500000000000000E+03,      /* I =  3 */
(PID.TID 0000.0001)                 3.500000000000000E+03,      /* I =  4 */
(PID.TID 0000.0001)                 4.500000000000000E+03,      /* I =  5 */
(PID.TID 0000.0001)                 5.500000000000000E+03,      /* I =  6 */
(PID.TID 0000.0001)                 6.500000000000000E+03,      /* I =  7 */
(PID.TID 0000.0001)                 7.500000000000000E+03,      /* I =  8 */
(PID.TID 0000.0001)                 8.500000000000000E+03,      /* I =  9 */
(PID.TID 0000.0001)                 9.500000000000000E+03,      /* I = 10 */
(PID.TID 0000.0001)                 1.050000000000000E+04,      /* I = 11 */
(PID.TID 0000.0001)                 1.150000000000000E+04,      /* I = 12 */
(PID.TID 0000.0001)                 1.250000000000000E+04,      /* I = 13 */
(PID.TID 0000.0001)                 1.350000000000000E+04,      /* I = 14 */
(PID.TID 0000.0001)                 1.450000000000000E+04,      /* I = 15 */
(PID.TID 0000.0001)                 1.550000000000000E+04,      /* I = 16 */
(PID.TID 0000.0001)                 1.650000000000000E+04,      /* I = 17 */
(PID.TID 0000.0001)                 1.750000000000000E+04,      /* I = 18 */
(PID.TID 0000.0001)                 1.850000000000000E+04,      /* I = 19 */
(PID.TID 0000.0001)                 1.950000000000000E+04,      /* I = 20 */
(PID.TID 0000.0001)                 2.050000000000000E+04,      /* I = 21 */
(PID.TID 0000.0001)                 2.150000000000000E+04,      /* I = 22 */
(PID.TID 0000.0001)                 2.250000000000000E+04,      /* I = 23 */
(PID.TID 0000.0001)                 2.350000000000000E+04,      /* I = 24 */
(PID.TID 0000.0001)                 2.450000000000000E+04,      /* I = 25 */
(PID.TID 0000.0001)                 2.550000000000000E+04,      /* I = 26 */
(PID.TID 0000.0001)                 2.650000000000000E+04,      /* I = 27 */
(PID.TID 0000.0001)                 2.750000000000000E+04,      /* I = 28 */
(PID.TID 0000.0001)                 2.850000000000000E+04,      /* I = 29 */
(PID.TID 0000.0001)                 2.950000000000000E+04,      /* I = 30 */
(PID.TID 0000.0001)                 3.050000000000000E+04,      /* I = 31 */
(PID.TID 0000.0001)                 3.150000000000000E+04,      /* I = 32 */
(PID.TID 0000.0001)                 3.250000000000000E+04,      /* I = 33 */
(PID.TID 0000.0001)                 3.350000000000000E+04,      /* I = 34 */
(PID.TID 0000.0001)                 3.450000000000000E+04,      /* I = 35 */
(PID.TID 0000.0001)                 3.550000000000000E+04,      /* I = 36 */
(PID.TID 0000.0001)                 3.650000000000000E+04,      /* I = 37 */
(PID.TID 0000.0001)                 3.750000000000000E+04,      /* I = 38 */
(PID.TID 0000.0001)                 3.850000000000000E+04,      /* I = 39 */
(PID.TID 0000.0001)                 3.950000000000000E+04,      /* I = 40 */
(PID.TID 0000.0001)                 4.050000000000000E+04,      /* I = 41 */
(PID.TID 0000.0001)                 4.150000000000000E+04,      /* I = 42 */
(PID.TID 0000.0001)                 4.250000000000000E+04,      /* I = 43 */
(PID.TID 0000.0001)                 4.350000000000000E+04,      /* I = 44 */
(PID.TID 0000.0001)                 4.450000000000000E+04,      /* I = 45 */
(PID.TID 0000.0001)                 4.550000000000000E+04,      /* I = 46 */
(PID.TID 0000.0001)                 4.650000000000000E+04,      /* I = 47 */
(PID.TID 0000.0001)                 4.750000000000000E+04,      /* I = 48 */
(PID.TID 0000.0001)                 4.850000000000000E+04,      /* I = 49 */
(PID.TID 0000.0001)                 4.950000000000000E+04       /* I = 50 */
(PID.TID 0000.0001)     ;
(PID.TID 0000.0001) ycoord =   /* P-point Y coord ( m - cartesian, degrees - spherical ) */
(PID.TID 0000.0001)                 5.000000000000000E+02,      /* J =  1 */
(PID.TID 0000.0001)                 1.500000000000000E+03,      /* J =  2 */
(PID.TID 0000.0001)                 2.500000000000000E+03,      /* J =  3 */
(PID.TID 0000.0001)                 3.500000000000000E+03,      /* J =  4 */
(PID.TID 0000.0001)                 4.500000000000000E+03,      /* J =  5 */
(PID.TID 0000.0001)                 5.500000000000000E+03,      /* J =  6 */
(PID.TID 0000.0001)                 6.500000000000000E+03,      /* J =  7 */
(PID.TID 0000.0001)                 7.500000000000000E+03,      /* J =  8 */
(PID.TID 0000.0001)                 8.500000000000000E+03,      /* J =  9 */
(PID.TID 0000.0001)                 9.500000000000000E+03,      /* J = 10 */
(PID.TID 0000.0001)                 1.050000000000000E+04,      /* J = 11 */
(PID.TID 0000.0001)                 1.150000000000000E+04,      /* J = 12 */
(PID.TID 0000.0001)                 1.250000000000000E+04,      /* J = 13 */
(PID.TID 0000.0001)                 1.350000000000000E+04,      /* J = 14 */
(PID.TID 0000.0001)                 1.450000000000000E+04,      /* J = 15 */
(PID.TID 0000.0001)                 1.550000000000000E+04,      /* J = 16 */
(PID.TID 0000.0001)                 1.650000000000000E+04,      /* J = 17 */
(PID.TID 0000.0001)                 1.750000000000000E+04,      /* J = 18 */
(PID.TID 0000.0001)                 1.850000000000000E+04,      /* J = 19 */
(PID.TID 0000.0001)                 1.950000000000000E+04,      /* J = 20 */
(PID.TID 0000.0001)                 2.050000000000000E+04,      /* J = 21 */
(PID.TID 0000.0001)                 2.150000000000000E+04,      /* J = 22 */
(PID.TID 0000.0001)                 2.250000000000000E+04,      /* J = 23 */
(PID.TID 0000.0001)                 2.350000000000000E+04,      /* J = 24 */
(PID.TID 0000.0001)                 2.450000000000000E+04,      /* J = 25 */
(PID.TID 0000.0001)                 2.550000000000000E+04       /* J = 26 */
(PID.TID 0000.0001)     ;
(PID.TID 0000.0001) rcoord =   /* P-point R coordinate (  units of r ) */
(PID.TID 0000.0001)                -2.500000000000000E+00,      /* K =  1 */
(PID.TID 0000.0001)                -7.500000000000000E+00,      /* K =  2 */
(PID.TID 0000.0001)                -1.250000000000000E+01,      /* K =  3 */
(PID.TID 0000.0001)                -1.750000000000000E+01,      /* K =  4 */
(PID.TID 0000.0001)                -2.250000000000000E+01,      /* K =  5 */
(PID.TID 0000.0001)                -2.750000000000000E+01,      /* K =  6 */
(PID.TID 0000.0001)                -3.250000000000000E+01,      /* K =  7 */
(PID.TID 0000.0001)                -3.750000000000000E+01,      /* K =  8 */
(PID.TID 0000.0001)                -4.250000000000000E+01,      /* K =  9 */
(PID.TID 0000.0001)                -4.750000000000000E+01,      /* K = 10 */
(PID.TID 0000.0001)                -5.250000000000000E+01,      /* K = 11 */
(PID.TID 0000.0001)                -5.750000000000000E+01,      /* K = 12 */
(PID.TID 0000.0001)                -6.250000000000000E+01,      /* K = 13 */
(PID.TID 0000.0001)                -6.750000000000000E+01,      /* K = 14 */
(PID.TID 0000.0001)                -7.250000000000000E+01,      /* K = 15 */
(PID.TID 0000.0001)                -7.750000000000000E+01,      /* K = 16 */
(PID.TID 0000.0001)                -8.250000000000000E+01,      /* K = 17 */
(PID.TID 0000.0001)                -8.750000000000000E+01,      /* K = 18 */
(PID.TID 0000.0001)                -9.250000000000000E+01,      /* K = 19 */
(PID.TID 0000.0001)                -9.750000000000000E+01,      /* K = 20 */
(PID.TID 0000.0001)                -1.025000000000000E+02,      /* K = 21 */
(PID.TID 0000.0001)                -1.075000000000000E+02,      /* K = 22 */
(PID.TID 0000.0001)                -1.125000000000000E+02,      /* K = 23 */
(PID.TID 0000.0001)                -1.175000000000000E+02,      /* K = 24 */
(PID.TID 0000.0001)                -1.225000000000000E+02,      /* K = 25 */
(PID.TID 0000.0001)                -1.275000000000000E+02,      /* K = 26 */
(PID.TID 0000.0001)                -1.325000000000000E+02,      /* K = 27 */
(PID.TID 0000.0001)                -1.375000000000000E+02,      /* K = 28 */
(PID.TID 0000.0001)                -1.425000000000000E+02,      /* K = 29 */
(PID.TID 0000.0001)                -1.475000000000000E+02,      /* K = 30 */
(PID.TID 0000.0001)                -1.525000000000000E+02,      /* K = 31 */
(PID.TID 0000.0001)                -1.575000000000000E+02,      /* K = 32 */
(PID.TID 0000.0001)                -1.625000000000000E+02,      /* K = 33 */
(PID.TID 0000.0001)                -1.675000000000000E+02,      /* K = 34 */
(PID.TID 0000.0001)                -1.725000000000000E+02,      /* K = 35 */
(PID.TID 0000.0001)                -1.775000000000000E+02,      /* K = 36 */
(PID.TID 0000.0001)                -1.825000000000000E+02,      /* K = 37 */
(PID.TID 0000.0001)                -1.875000000000000E+02,      /* K = 38 */
(PID.TID 0000.0001)                -1.925000000000000E+02,      /* K = 39 */
(PID.TID 0000.0001)                -1.975000000000000E+02       /* K = 40 */
(PID.TID 0000.0001)     ;
(PID.TID 0000.0001) rF =   /* W-Interf. R coordinate (  units of r ) */
(PID.TID 0000.0001)                 0.000000000000000E+00,      /* K =  1 */
(PID.TID 0000.0001)                -5.000000000000000E+00,      /* K =  2 */
(PID.TID 0000.0001)                -1.000000000000000E+01,      /* K =  3 */
(PID.TID 0000.0001)                -1.500000000000000E+01,      /* K =  4 */
(PID.TID 0000.0001)                -2.000000000000000E+01,      /* K =  5 */
(PID.TID 0000.0001)                -2.500000000000000E+01,      /* K =  6 */
(PID.TID 0000.0001)                -3.000000000000000E+01,      /* K =  7 */
(PID.TID 0000.0001)                -3.500000000000000E+01,      /* K =  8 */
(PID.TID 0000.0001)                -4.000000000000000E+01,      /* K =  9 */
(PID.TID 0000.0001)                -4.500000000000000E+01,      /* K = 10 */
(PID.TID 0000.0001)                -5.000000000000000E+01,      /* K = 11 */
(PID.TID 0000.0001)                -5.500000000000000E+01,      /* K = 12 */
(PID.TID 0000.0001)                -6.000000000000000E+01,      /* K = 13 */
(PID.TID 0000.0001)                -6.500000000000000E+01,      /* K = 14 */
(PID.TID 0000.0001)                -7.000000000000000E+01,      /* K = 15 */
(PID.TID 0000.0001)                -7.500000000000000E+01,      /* K = 16 */
(PID.TID 0000.0001)                -8.000000000000000E+01,      /* K = 17 */
(PID.TID 0000.0001)                -8.500000000000000E+01,      /* K = 18 */
(PID.TID 0000.0001)                -9.000000000000000E+01,      /* K = 19 */
(PID.TID 0000.0001)                -9.500000000000000E+01,      /* K = 20 */
(PID.TID 0000.0001)                -1.000000000000000E+02,      /* K = 21 */
(PID.TID 0000.0001)                -1.050000000000000E+02,      /* K = 22 */
(PID.TID 0000.0001)                -1.100000000000000E+02,      /* K = 23 */
(PID.TID 0000.0001)                -1.150000000000000E+02,      /* K = 24 */
(PID.TID 0000.0001)                -1.200000000000000E+02,      /* K = 25 */
(PID.TID 0000.0001)                -1.250000000000000E+02,      /* K = 26 */
(PID.TID 0000.0001)                -1.300000000000000E+02,      /* K = 27 */
(PID.TID 0000.0001)                -1.350000000000000E+02,      /* K = 28 */
(PID.TID 0000.0001)                -1.400000000000000E+02,      /* K = 29 */
(PID.TID 0000.0001)                -1.450000000000000E+02,      /* K = 30 */
(PID.TID 0000.0001)                -1.500000000000000E+02,      /* K = 31 */
(PID.TID 0000.0001)                -1.550000000000000E+02,      /* K = 32 */
(PID.TID 0000.0001)                -1.600000000000000E+02,      /* K = 33 */
(PID.TID 0000.0001)                -1.650000000000000E+02,      /* K = 34 */
(PID.TID 0000.0001)                -1.700000000000000E+02,      /* K = 35 */
(PID.TID 0000.0001)                -1.750000000000000E+02,      /* K = 36 */
(PID.TID 0000.0001)                -1.800000000000000E+02,      /* K = 37 */
(PID.TID 0000.0001)                -1.850000000000000E+02,      /* K = 38 */
(PID.TID 0000.0001)                -1.900000000000000E+02,      /* K = 39 */
(PID.TID 0000.0001)                -1.950000000000000E+02,      /* K = 40 */
(PID.TID 0000.0001)                -2.000000000000000E+02       /* K = 41 */
(PID.TID 0000.0001)     ;
(PID.TID 0000.0001) dxF =  /* dxF(:,1,:,1) ( m - cartesian, degrees - spherical ) */
(PID.TID 0000.0001)    50 @  1.000000000000000E+03              /* I =  1: 50 */
(PID.TID 0000.0001)     ;
(PID.TID 0000.0001) dxF =  /* dxF(1,:,1,:) ( m - cartesian, degrees - spherical ) */
(PID.TID 0000.0001)    26 @  1.000000000000000E+03              /* J =  1: 26 */
(PID.TID 0000.0001)     ;
(PID.TID 0000.0001) dyF =  /* dyF(:,1,:,1) ( m - cartesian, degrees - spherical ) */
(PID.TID 0000.0001)    50 @  1.000000000000000E+03              /* I =  1: 50 */
(PID.TID 0000.0001)     ;
(PID.TID 0000.0001) dyF =  /* dyF(1,:,1,:) ( m - cartesian, degrees - spherical ) */
(PID.TID 0000.0001)    26 @  1.000000000000000E+03              /* J =  1: 26 */
(PID.TID 0000.0001)     ;
(PID.TID 0000.0001) dxG =  /* dxG(:,1,:,1) ( m - cartesian, degrees - spherical ) */
(PID.TID 0000.0001)    50 @  1.000000000000000E+03              /* I =  1: 50 */
(PID.TID 0000.0001)     ;
(PID.TID 0000.0001) dxG =  /* dxG(1,:,1,:) ( m - cartesian, degrees - spherical ) */
(PID.TID 0000.0001)    26 @  1.000000000000000E+03              /* J =  1: 26 */
(PID.TID 0000.0001)     ;
(PID.TID 0000.0001) dyG =  /* dyG(:,1,:,1) ( m - cartesian, degrees - spherical ) */
(PID.TID 0000.0001)    50 @  1.000000000000000E+03              /* I =  1: 50 */
(PID.TID 0000.0001)     ;
(PID.TID 0000.0001) dyG =  /* dyG(1,:,1,:) ( m - cartesian, degrees - spherical ) */
(PID.TID 0000.0001)    26 @  1.000000000000000E+03              /* J =  1: 26 */
(PID.TID 0000.0001)     ;
(PID.TID 0000.0001) dxC =  /* dxC(:,1,:,1) ( m - cartesian, degrees - spherical ) */
(PID.TID 0000.0001)    50 @  1.000000000000000E+03              /* I =  1: 50 */
(PID.TID 0000.0001)     ;
(PID.TID 0000.0001) dxC =  /* dxC(1,:,1,:) ( m - cartesian, degrees - spherical ) */
(PID.TID 0000.0001)    26 @  1.000000000000000E+03              /* J =  1: 26 */
(PID.TID 0000.0001)     ;
(PID.TID 0000.0001) dyC =  /* dyC(:,1,:,1) ( m - cartesian, degrees - spherical ) */
(PID.TID 0000.0001)    50 @  1.000000000000000E+03              /* I =  1: 50 */
(PID.TID 0000.0001)     ;
(PID.TID 0000.0001) dyC =  /* dyC(1,:,1,:) ( m - cartesian, degrees - spherical ) */
(PID.TID 0000.0001)    26 @  1.000000000000000E+03              /* J =  1: 26 */
(PID.TID 0000.0001)     ;
(PID.TID 0000.0001) dxV =  /* dxV(:,1,:,1) ( m - cartesian, degrees - spherical ) */
(PID.TID 0000.0001)    50 @  1.000000000000000E+03              /* I =  1: 50 */
(PID.TID 0000.0001)     ;
(PID.TID 0000.0001) dxV =  /* dxV(1,:,1,:) ( m - cartesian, degrees - spherical ) */
(PID.TID 0000.0001)    26 @  1.000000000000000E+03              /* J =  1: 26 */
(PID.TID 0000.0001)     ;
(PID.TID 0000.0001) dyU =  /* dyU(:,1,:,1) ( m - cartesian, degrees - spherical ) */
(PID.TID 0000.0001)    50 @  1.000000000000000E+03              /* I =  1: 50 */
(PID.TID 0000.0001)     ;
(PID.TID 0000.0001) dyU =  /* dyU(1,:,1,:) ( m - cartesian, degrees - spherical ) */
(PID.TID 0000.0001)    26 @  1.000000000000000E+03              /* J =  1: 26 */
(PID.TID 0000.0001)     ;
(PID.TID 0000.0001) rA =  /* rA(:,1,:,1) ( m - cartesian, degrees - spherical ) */
(PID.TID 0000.0001)    50 @  1.000000000000000E+06              /* I =  1: 50 */
(PID.TID 0000.0001)     ;
(PID.TID 0000.0001) rA =  /* rA(1,:,1,:) ( m - cartesian, degrees - spherical ) */
(PID.TID 0000.0001)    26 @  1.000000000000000E+06              /* J =  1: 26 */
(PID.TID 0000.0001)     ;
(PID.TID 0000.0001) rAw =  /* rAw(:,1,:,1) ( m - cartesian, degrees - spherical ) */
(PID.TID 0000.0001)    50 @  1.000000000000000E+06              /* I =  1: 50 */
(PID.TID 0000.0001)     ;
(PID.TID 0000.0001) rAw =  /* rAw(1,:,1,:) ( m - cartesian, degrees - spherical ) */
(PID.TID 0000.0001)    26 @  1.000000000000000E+06              /* J =  1: 26 */
(PID.TID 0000.0001)     ;
(PID.TID 0000.0001) rAs =  /* rAs(:,1,:,1) ( m - cartesian, degrees - spherical ) */
(PID.TID 0000.0001)    50 @  1.000000000000000E+06              /* I =  1: 50 */
(PID.TID 0000.0001)     ;
(PID.TID 0000.0001) rAs =  /* rAs(1,:,1,:) ( m - cartesian, degrees - spherical ) */
(PID.TID 0000.0001)    26 @  1.000000000000000E+06              /* J =  1: 26 */
(PID.TID 0000.0001)     ;
(PID.TID 0000.0001) 
(PID.TID 0000.0001)  write diagnostics summary to file ioUnit:      6
Iter.Nb:        36 ; Time(s):  4.3200000000000E+04
------------------------------------------------------------------------
2D/3D diagnostics: Number of lists:     2
------------------------------------------------------------------------
listId=   1 ; file name: spiceflx
 nFlds, nActive,       freq     &   phase        , nLev                 
   3  |   3  |     86400.000000         0.000000 |  40
 levels:   1   2   3   4   5   6   7   8   9  10  11  12  13  14  15  16  17  18  19  20  21  22  23  24  25  26  27  28  29  30  31  32  33  34  35  36  37  38  39  40
 diag#| name   | ipt  | iMate| kLev| count | mate.C|                    
   55 |UVELSLT |    1 |   41 |  40 |     0 |     0 |
   56 |VVELSLT |   41 |    1 |  40 |     0 |     0 |
   57 |WVELSLT |   81 |    0 |  40 |     0 |
------------------------------------------------------------------------
listId=   2 ; file name: thetaflx
 nFlds, nActive,       freq     &   phase        , nLev                 
   3  |   3  |     86400.000000         0.000000 |  40
 levels:   1   2   3   4   5   6   7   8   9  10  11  12  13  14  15  16  17  18  19  20  21  22  23  24  25  26  27  28  29  30  31  32  33  34  35  36  37  38  39  40
 diag#| name   | ipt  | iMate| kLev| count | mate.C|                    
   52 |UVELTH  |  121 |  161 |  40 |     0 |     0 |
   53 |VVELTH  |  161 |  121 |  40 |     0 |     0 |
   54 |WVELTH  |  201 |    0 |  40 |     0 |
------------------------------------------------------------------------
Global & Regional Statistics diagnostics: Number of lists:     0
------------------------------------------------------------------------
(PID.TID 0000.0001) // =======================================================
(PID.TID 0000.0001) // Model current state
(PID.TID 0000.0001) // =======================================================
(PID.TID 0000.0001) 
(PID.TID 0000.0001) // =======================================================
(PID.TID 0000.0001) // Begin MONITOR dynamic field statistics
(PID.TID 0000.0001) // =======================================================
(PID.TID 0000.0001) %MON time_tsnumber                =                    36
(PID.TID 0000.0001) %MON time_secondsf                =   4.3200000000000E+04
(PID.TID 0000.0001) %MON dynstat_eta_max              =   3.9656950777929E-04
(PID.TID 0000.0001) %MON dynstat_eta_min              =  -4.1893525696392E-04
(PID.TID 0000.0001) %MON dynstat_eta_mean             =   8.1570469774306E-17
(PID.TID 0000.0001) %MON dynstat_eta_sd               =   3.7353302717594E-04
(PID.TID 0000.0001) %MON dynstat_eta_del2             =   3.9494366525211E-06
(PID.TID 0000.0001) %MON dynstat_uvel_max             =   4.0776032441076E-02
(PID.TID 0000.0001) %MON dynstat_uvel_min             =  -4.0777752165368E-02
(PID.TID 0000.0001) %MON dynstat_uvel_mean            =  -9.1456859423299E-07
(PID.TID 0000.0001) %MON dynstat_uvel_sd              =   9.6713177501082E-03
(PID.TID 0000.0001) %MON dynstat_uvel_del2            =   3.4756307714074E-04
(PID.TID 0000.0001) %MON dynstat_vvel_max             =   6.0615034666724E-03
(PID.TID 0000.0001) %MON dynstat_vvel_min             =  -6.0596377369966E-03
(PID.TID 0000.0001) %MON dynstat_vvel_mean            =   1.4713291388585E-10
(PID.TID 0000.0001) %MON dynstat_vvel_sd              =   1.0772247231727E-03
(PID.TID 0000.0001) %MON dynstat_vvel_del2            =   1.4971079989611E-04
(PID.TID 0000.0001) %MON dynstat_wvel_max             =   2.6103058521350E-04
(PID.TID 0000.0001) %MON dynstat_wvel_min             =  -2.6031077487261E-04
(PID.TID 0000.0001) %MON dynstat_wvel_mean            =   2.8819973130903E-22
(PID.TID 0000.0001) %MON dynstat_wvel_sd              =   5.7995794048929E-05
(PID.TID 0000.0001) %MON dynstat_wvel_del2            =   1.3157783765381E-05
(PID.TID 0000.0001) %MON dynstat_theta_max            =   1.7020391872709E+01
(PID.TID 0000.0001) %MON dynstat_theta_min            =   1.6979608188987E+01
(PID.TID 0000.0001) %MON dynstat_theta_mean           =   1.6999999916812E+01
(PID.TID 0000.0001) %MON dynstat_theta_sd             =   1.8680389309433E-02
(PID.TID 0000.0001) %MON dynstat_theta_del2           =   1.9623434894616E-04
(PID.TID 0000.0001) %MON dynstat_salt_max             =   1.7020387109310E+01
(PID.TID 0000.0001) %MON dynstat_salt_min             =   1.6979612982853E+01
(PID.TID 0000.0001) %MON dynstat_salt_mean            =   1.7000000005832E+01
(PID.TID 0000.0001) %MON dynstat_salt_sd              =   1.8684493932753E-02
(PID.TID 0000.0001) %MON dynstat_salt_del2            =   1.9211878151543E-04
(PID.TID 0000.0001) %MON advcfl_uvel_max              =   4.8933302598442E-02
(PID.TID 0000.0001) %MON advcfl_vvel_max              =   7.2738041600068E-03
(PID.TID 0000.0001) %MON advcfl_wvel_max              =   6.2647340451240E-02
(PID.TID 0000.0001) %MON advcfl_W_hf_max              =   6.2647340451240E-02
(PID.TID 0000.0001) %MON pe_b_mean                    =   3.4218977716447E-09
(PID.TID 0000.0001) %MON ke_max                       =   8.4433562791639E-04
(PID.TID 0000.0001) %MON ke_mean                      =   4.7324192220021E-05
(PID.TID 0000.0001) %MON ke_vol                       =   2.5000000000000E+11
(PID.TID 0000.0001) %MON vort_r_min                   =  -1.3939018067936E-05
(PID.TID 0000.0001) %MON vort_r_max                   =   1.5462961637274E-05
(PID.TID 0000.0001) %MON vort_a_mean                  =   7.2900000000001E-05
(PID.TID 0000.0001) %MON vort_a_sd                    =   3.7085881243539E-06
(PID.TID 0000.0001) %MON vort_p_mean                  =   7.7363265306123E-05
(PID.TID 0000.0001) %MON vort_p_sd                    =   3.1157520383098E-05
(PID.TID 0000.0001) %MON surfExpan_theta_mean         =   4.9861082138891E-13
(PID.TID 0000.0001) %MON surfExpan_salt_mean          =  -1.6472025242721E-16
(PID.TID 0000.0001) // =======================================================
(PID.TID 0000.0001) // End MONITOR dynamic field statistics
(PID.TID 0000.0001) // =======================================================
 cg2d: Sum(rhs),rhsMax =  -4.71973317633240E-13  8.04017840242126E-04
(PID.TID 0000.0001)                    cg2d_init_res =    1.22552032032380E-01
(PID.TID 0000.0001)                       cg2d_iters =    78
(PID.TID 0000.0001)                         cg2d_res =    7.60624711762125E-12
(PID.TID 0000.0001) // =======================================================
(PID.TID 0000.0001) // Begin MONITOR dynamic field statistics
[...]
(PID.TID 0000.0001) %MON dynstat_theta_min            =   1.6979608188987E+01
(PID.TID 0000.0001) %MON dynstat_theta_mean           =   1.6999999916837E+01
(PID.TID 0000.0001) %MON dynstat_theta_sd             =   1.8680009385062E-02
(PID.TID 0000.0001) %MON dynstat_theta_del2           =   1.9609305146997E-04
(PID.TID 0000.0001) %MON dynstat_salt_max             =   1.7020387109310E+01
(PID.TID 0000.0001) %MON dynstat_salt_min             =   1.6979612982852E+01
(PID.TID 0000.0001) %MON dynstat_salt_mean            =   1.7000000005832E+01
(PID.TID 0000.0001) %MON dynstat_salt_sd              =   1.8684062649483E-02
(PID.TID 0000.0001) %MON dynstat_salt_del2            =   1.9457181179563E-04
(PID.TID 0000.0001) %MON advcfl_uvel_max              =   3.9077514262371E-02
(PID.TID 0000.0001) %MON advcfl_vvel_max              =   1.1011386726478E-02
(PID.TID 0000.0001) %MON advcfl_wvel_max              =   3.8952973792723E-02
(PID.TID 0000.0001) %MON advcfl_W_hf_max              =   3.8952973792723E-02
(PID.TID 0000.0001) %MON pe_b_mean                    =   3.4193125597709E-09
(PID.TID 0000.0001) %MON ke_max                       =   5.5462971201809E-04
(PID.TID 0000.0001) %MON ke_mean                      =   3.4424660717797E-05
(PID.TID 0000.0001) %MON ke_vol                       =   2.5000000000000E+11
(PID.TID 0000.0001) %MON vort_r_min                   =  -1.0388562416251E-05
(PID.TID 0000.0001) %MON vort_r_max                   =   1.1440328630186E-05
(PID.TID 0000.0001) %MON vort_a_mean                  =   7.2900000000000E-05
(PID.TID 0000.0001) %MON vort_a_sd                    =   2.8230617261347E-06
(PID.TID 0000.0001) %MON vort_p_mean                  =   7.7363265306122E-05
(PID.TID 0000.0001) %MON vort_p_sd                    =   3.1058861910186E-05
(PID.TID 0000.0001) %MON surfExpan_theta_mean         =  -7.4105875235272E-13
(PID.TID 0000.0001) %MON surfExpan_salt_mean          =  -3.2201063461107E-16
(PID.TID 0000.0001) // =======================================================
(PID.TID 0000.0001) // End MONITOR dynamic field statistics
(PID.TID 0000.0001) // =======================================================
 cg2d: Sum(rhs),rhsMax =  -3.40975674344851E-13  7.84282616101045E-04
(PID.TID 0000.0001)                    cg2d_init_res =    1.35709182011334E-01
(PID.TID 0000.0001)                       cg2d_iters =    77
(PID.TID 0000.0001)                         cg2d_res =    7.60711015156872E-12
(PID.TID 0000.0001) // =======================================================
(PID.TID 0000.0001) // Begin MONITOR dynamic field statistics
(PID.TID 0000.0001) // =======================================================
(PID.TID 0000.0001) %MON time_tsnumber                =                    47
(PID.TID 0000.0001) %MON time_secondsf                =   5.6400000000000E+04
(PID.TID 0000.0001) %MON dynstat_eta_max              =   3.9857679791288E-04
(PID.TID 0000.0001) %MON dynstat_eta_min              =  -4.1692853990583E-04
(PID.TID 0000.0001) %MON dynstat_eta_mean             =   7.8294760896824E-17
(PID.TID 0000.0001) %MON dynstat_eta_sd               =   3.7337432609921E-04
(PID.TID 0000.0001) %MON dynstat_eta_del2             =   3.8813557981960E-06
(PID.TID 0000.0001) %MON dynstat_uvel_max             =   3.1403362346716E-02
(PID.TID 0000.0001) %MON dynstat_uvel_min             =  -3.1405874524036E-02
(PID.TID 0000.0001) %MON dynstat_uvel_mean            =  -9.1430821401325E-07
(PID.TID 0000.0001) %MON dynstat_uvel_sd              =   7.4848820106421E-03
(PID.TID 0000.0001) %MON dynstat_uvel_del2            =   2.3748428484129E-04
(PID.TID 0000.0001) %MON dynstat_vvel_max             =   9.7689226276531E-03
(PID.TID 0000.0001) %MON dynstat_vvel_min             =  -9.7683488551387E-03
(PID.TID 0000.0001) %MON dynstat_vvel_mean            =  -2.4124955481199E-10
(PID.TID 0000.0001) %MON dynstat_vvel_sd              =   3.1279951339460E-03
(PID.TID 0000.0001) %MON dynstat_vvel_del2            =   1.0093191487239E-04
(PID.TID 0000.0001) %MON dynstat_wvel_max             =   1.7000011378570E-04
(PID.TID 0000.0001) %MON dynstat_wvel_min             =  -1.7023447980644E-04
(PID.TID 0000.0001) %MON dynstat_wvel_mean            =   1.9075947572610E-21
(PID.TID 0000.0001) %MON dynstat_wvel_sd              =   5.3562858788585E-05
(PID.TID 0000.0001) %MON dynstat_wvel_del2            =   5.5289881967425E-06
(PID.TID 0000.0001) %MON dynstat_theta_max            =   1.7020391872612E+01
(PID.TID 0000.0001) %MON dynstat_theta_min            =   1.6979608188987E+01
(PID.TID 0000.0001) %MON dynstat_theta_mean           =   1.6999999916842E+01
(PID.TID 0000.0001) %MON dynstat_theta_sd             =   1.8679949609433E-02
(PID.TID 0000.0001) %MON dynstat_theta_del2           =   1.9606637116113E-04
(PID.TID 0000.0001) %MON dynstat_salt_max             =   1.7020387109310E+01
(PID.TID 0000.0001) %MON dynstat_salt_min             =   1.6979612982852E+01
(PID.TID 0000.0001) %MON dynstat_salt_mean            =   1.7000000005831E+01
(PID.TID 0000.0001) %MON dynstat_salt_sd              =   1.8684016680458E-02
(PID.TID 0000.0001) %MON dynstat_salt_del2            =   1.9487167997647E-04
(PID.TID 0000.0001) %MON advcfl_uvel_max              =   3.7687049428844E-02
(PID.TID 0000.0001) %MON advcfl_vvel_max              =   1.1722707153184E-02
(PID.TID 0000.0001) %MON advcfl_wvel_max              =   4.0856275153546E-02
(PID.TID 0000.0001) %MON advcfl_W_hf_max              =   4.0856275153546E-02
(PID.TID 0000.0001) %MON pe_b_mean                    =   3.4189907007407E-09
(PID.TID 0000.0001) %MON ke_max                       =   5.2246809169848E-04
(PID.TID 0000.0001) %MON ke_mean                      =   3.2708219482431E-05
(PID.TID 0000.0001) %MON ke_vol                       =   2.5000000000000E+11
(PID.TID 0000.0001) %MON vort_r_min                   =  -1.0045361925243E-05
(PID.TID 0000.0001) %MON vort_r_max                   =   1.1032883406209E-05
(PID.TID 0000.0001) %MON vort_a_mean                  =   7.2900000000000E-05
(PID.TID 0000.0001) %MON vort_a_sd                    =   2.7201585088645E-06
(PID.TID 0000.0001) %MON vort_p_mean                  =   7.7363265306123E-05
(PID.TID 0000.0001) %MON vort_p_sd                    =   3.1049115368241E-05
(PID.TID 0000.0001) %MON surfExpan_theta_mean         =  -7.3389727673533E-13
(PID.TID 0000.0001) %MON surfExpan_salt_mean          =  -2.4731269403708E-16
(PID.TID 0000.0001) // =======================================================
(PID.TID 0000.0001) // End MONITOR dynamic field statistics
(PID.TID 0000.0001) // =======================================================
 cg2d: Sum(rhs),rhsMax =  -4.91434258738377E-13  7.82968773674634E-04
(PID.TID 0000.0001)                    cg2d_init_res =    1.35887287257054E-01
(PID.TID 0000.0001)                       cg2d_iters =    77
(PID.TID 0000.0001)                         cg2d_res =    7.35557077012647E-12
(PID.TID 0000.0001) // =======================================================
(PID.TID 0000.0001) // Begin MONITOR dynamic field statistics
(PID.TID 0000.0001) // =======================================================
(PID.TID 0000.0001) %MON time_tsnumber                =                    48
(PID.TID 0000.0001) %MON time_secondsf                =   5.7600000000000E+04
(PID.TID 0000.0001) %MON dynstat_eta_max              =   3.9899321944482E-04
(PID.TID 0000.0001) %MON dynstat_eta_min              =  -4.1651215814784E-04
(PID.TID 0000.0001) %MON dynstat_eta_mean             =   7.4566414696164E-17
(PID.TID 0000.0001) %MON dynstat_eta_sd               =   3.7335927733944E-04
(PID.TID 0000.0001) %MON dynstat_eta_del2             =   3.8770516655982E-06
(PID.TID 0000.0001) %MON dynstat_uvel_max             =   3.0211264103356E-02
(PID.TID 0000.0001) %MON dynstat_uvel_min             =  -3.0213784732514E-02
(PID.TID 0000.0001) %MON dynstat_uvel_mean            =  -9.1428427219714E-07
(PID.TID 0000.0001) %MON dynstat_uvel_sd              =   7.1694919874915E-03
(PID.TID 0000.0001) %MON dynstat_uvel_del2            =   2.2768144777538E-04
(PID.TID 0000.0001) %MON dynstat_vvel_max             =   1.0276844985612E-02
(PID.TID 0000.0001) %MON dynstat_vvel_min             =  -1.0276056535150E-02
(PID.TID 0000.0001) %MON dynstat_vvel_mean            =  -2.5454514432503E-10
(PID.TID 0000.0001) %MON dynstat_vvel_sd              =   3.3057472803871E-03
(PID.TID 0000.0001) %MON dynstat_vvel_del2            =   1.0191333185007E-04
(PID.TID 0000.0001) %MON dynstat_wvel_max             =   1.7674394658143E-04
(PID.TID 0000.0001) %MON dynstat_wvel_min             =  -1.7699278206921E-04
(PID.TID 0000.0001) %MON dynstat_wvel_mean            =  -7.3132835933404E-22
(PID.TID 0000.0001) %MON dynstat_wvel_sd              =   5.6156683701517E-05
(PID.TID 0000.0001) %MON dynstat_wvel_del2            =   5.5575607701476E-06
(PID.TID 0000.0001) %MON dynstat_theta_max            =   1.7020391872605E+01
(PID.TID 0000.0001) %MON dynstat_theta_min            =   1.6979608188987E+01
(PID.TID 0000.0001) %MON dynstat_theta_mean           =   1.6999999916846E+01
(PID.TID 0000.0001) %MON dynstat_theta_sd             =   1.8679886372323E-02
(PID.TID 0000.0001) %MON dynstat_theta_del2           =   1.9605884081264E-04
(PID.TID 0000.0001) %MON dynstat_salt_max             =   1.7020387109310E+01
(PID.TID 0000.0001) %MON dynstat_salt_min             =   1.6979612982852E+01
(PID.TID 0000.0001) %MON dynstat_salt_mean            =   1.7000000005832E+01
(PID.TID 0000.0001) %MON dynstat_salt_sd              =   1.8683970721772E-02
(PID.TID 0000.0001) %MON dynstat_salt_del2            =   1.9515575111178E-04
(PID.TID 0000.0001) %MON advcfl_uvel_max              =   3.6256541679017E-02
(PID.TID 0000.0001) %MON advcfl_vvel_max              =   1.2332213982734E-02
(PID.TID 0000.0001) %MON advcfl_wvel_max              =   4.2478267696611E-02
(PID.TID 0000.0001) %MON advcfl_W_hf_max              =   4.2478267696611E-02
(PID.TID 0000.0001) %MON pe_b_mean                    =   3.4187151031474E-09
(PID.TID 0000.0001) %MON ke_max                       =   4.9023483706213E-04
(PID.TID 0000.0001) %MON ke_mean                      =   3.0946231336568E-05
(PID.TID 0000.0001) %MON ke_vol                       =   2.5000000000000E+11
(PID.TID 0000.0001) %MON vort_r_min                   =  -9.7067345035554E-06
(PID.TID 0000.0001) %MON vort_r_max                   =   1.0627086088036E-05
(PID.TID 0000.0001) %MON vort_a_mean                  =   7.2899999999999E-05
(PID.TID 0000.0001) %MON vort_a_sd                    =   2.6164737660413E-06
(PID.TID 0000.0001) %MON vort_p_mean                  =   7.7363265306122E-05
(PID.TID 0000.0001) %MON vort_p_sd                    =   3.1039657893157E-05
(PID.TID 0000.0001) %MON surfExpan_theta_mean         =  -7.0960767434172E-13
(PID.TID 0000.0001) %MON surfExpan_salt_mean          =  -3.0489807167355E-16
(PID.TID 0000.0001) // =======================================================
(PID.TID 0000.0001) // End MONITOR dynamic field statistics
(PID.TID 0000.0001) // =======================================================
(PID.TID 0000.0001) %CHECKPOINT        48 0000000048
(PID.TID 0000.0001)   Seconds in section "ALL                    [THE_MODEL_MAIN]":
(PID.TID 0000.0001)           User time:  20.9528148
(PID.TID 0000.0001)         System time:  2.06868608
(PID.TID 0000.0001)     Wall clock time:  58.8261759
(PID.TID 0000.0001)          No. starts: 1
(PID.TID 0000.0001)           No. stops: 1
(PID.TID 0000.0001)   Seconds in section "INITIALISE_FIXED       [THE_MODEL_MAIN]":
(PID.TID 0000.0001)           User time:  5.60714697
(PID.TID 0000.0001)         System time:  0.827874013
(PID.TID 0000.0001)     Wall clock time:  18.273596
(PID.TID 0000.0001)          No. starts: 1
(PID.TID 0000.0001)           No. stops: 1
(PID.TID 0000.0001)   Seconds in section "THE_MAIN_LOOP          [THE_MODEL_MAIN]":
(PID.TID 0000.0001)           User time:  15.3456678
(PID.TID 0000.0001)         System time:  1.24081206
(PID.TID 0000.0001)     Wall clock time:  40.5523689
(PID.TID 0000.0001)          No. starts: 1
(PID.TID 0000.0001)           No. stops: 1
(PID.TID 0000.0001)   Seconds in section "INITIALISE_VARIA    [THE_MAIN_LOOP]":
(PID.TID 0000.0001)           User time:  0.29095602
(PID.TID 0000.0001)         System time:  0.0989850163
(PID.TID 0000.0001)     Wall clock time:  0.60462594
(PID.TID 0000.0001)          No. starts: 1
(PID.TID 0000.0001)           No. stops: 1
(PID.TID 0000.0001)   Seconds in section "MONITOR             [THE_MAIN_LOOP]":
(PID.TID 0000.0001)           User time:  0.096985817
(PID.TID 0000.0001)         System time:  0.
(PID.TID 0000.0001)     Wall clock time:  0.0968019962
(PID.TID 0000.0001)          No. starts: 1
(PID.TID 0000.0001)           No. stops: 1
(PID.TID 0000.0001)   Seconds in section "DO_THE_MODEL_IO     [THE_MAIN_LOOP]":
(PID.TID 0000.0001)           User time:  0.125980377
(PID.TID 0000.0001)         System time:  0.0299959779
(PID.TID 0000.0001)     Wall clock time:  0.524075985
(PID.TID 0000.0001)          No. starts: 1
(PID.TID 0000.0001)           No. stops: 1
(PID.TID 0000.0001)   Seconds in section "MAIN LOOP           [THE_MAIN_LOOP]":
(PID.TID 0000.0001)           User time:  14.8317456
(PID.TID 0000.0001)         System time:  1.11183107
(PID.TID 0000.0001)     Wall clock time:  39.3266721
(PID.TID 0000.0001)          No. starts: 1
(PID.TID 0000.0001)           No. stops: 1
(PID.TID 0000.0001)   Seconds in section "FORWARD_STEP        [THE_MAIN_LOOP]":
(PID.TID 0000.0001)           User time:  14.8317456
(PID.TID 0000.0001)         System time:  1.11183107
(PID.TID 0000.0001)     Wall clock time:  39.3262024
(PID.TID 0000.0001)          No. starts: 12
(PID.TID 0000.0001)           No. stops: 12
(PID.TID 0000.0001)   Seconds in section "DO_STATEVARS_DIAGS  [FORWARD_STEP]":
(PID.TID 0000.0001)           User time:  0.24596262
(PID.TID 0000.0001)         System time:  0.00199890137
(PID.TID 0000.0001)     Wall clock time:  0.281205893
(PID.TID 0000.0001)          No. starts: 24
(PID.TID 0000.0001)           No. stops: 24
(PID.TID 0000.0001)   Seconds in section "EXTERNAL_FIELDS_LOAD[FORWARD_STEP]":
(PID.TID 0000.0001)           User time:  0.00100040436
(PID.TID 0000.0001)         System time:  0.
(PID.TID 0000.0001)     Wall clock time:  0.00563335419
(PID.TID 0000.0001)          No. starts: 12
(PID.TID 0000.0001)           No. stops: 12
(PID.TID 0000.0001)   Seconds in section "DO_ATMOSPHERIC_PHYS [FORWARD_STEP]":
(PID.TID 0000.0001)           User time:  0.
(PID.TID 0000.0001)         System time:  0.
(PID.TID 0000.0001)     Wall clock time:  0.000423669815
(PID.TID 0000.0001)          No. starts: 12
(PID.TID 0000.0001)           No. stops: 12
(PID.TID 0000.0001)   Seconds in section "DO_OCEANIC_PHYS     [FORWARD_STEP]":
(PID.TID 0000.0001)           User time:  0.216970444
(PID.TID 0000.0001)         System time:  0.00899922848
(PID.TID 0000.0001)     Wall clock time:  0.266431332
(PID.TID 0000.0001)          No. starts: 12
(PID.TID 0000.0001)           No. stops: 12
(PID.TID 0000.0001)   Seconds in section "DYNAMICS            [FORWARD_STEP]":
(PID.TID 0000.0001)           User time:  5.69213343
(PID.TID 0000.0001)         System time:  0.402935743
(PID.TID 0000.0001)     Wall clock time:  12.9414718
(PID.TID 0000.0001)          No. starts: 12
(PID.TID 0000.0001)           No. stops: 12
(PID.TID 0000.0001)   Seconds in section "SOLVE_FOR_PRESSURE  [FORWARD_STEP]":
(PID.TID 0000.0001)           User time:  0.58091116
(PID.TID 0000.0001)         System time:  0.0110001564
(PID.TID 0000.0001)     Wall clock time:  0.734601736
(PID.TID 0000.0001)          No. starts: 12
(PID.TID 0000.0001)           No. stops: 12
(PID.TID 0000.0001)   Seconds in section "UV_CORRECTION_STEP  [FORWARD_STEP]":
(PID.TID 0000.0001)           User time:  0.121983528
(PID.TID 0000.0001)         System time:  0.00200009346
(PID.TID 0000.0001)     Wall clock time:  0.147212267
(PID.TID 0000.0001)          No. starts: 12
(PID.TID 0000.0001)           No. stops: 12
(PID.TID 0000.0001)   Seconds in section "BLOCKING_EXCHANGES  [FORWARD_STEP]":
(PID.TID 0000.0001)           User time:  0.0949845314
(PID.TID 0000.0001)         System time:  0.000999927521
(PID.TID 0000.0001)     Wall clock time:  0.158496618
(PID.TID 0000.0001)          No. starts: 24
(PID.TID 0000.0001)           No. stops: 24
(PID.TID 0000.0001)   Seconds in section "THERMODYNAMICS      [FORWARD_STEP]":
(PID.TID 0000.0001)           User time:  4.19236422
(PID.TID 0000.0001)         System time:  0.0359947681
(PID.TID 0000.0001)     Wall clock time:  5.17384791
(PID.TID 0000.0001)          No. starts: 12
(PID.TID 0000.0001)           No. stops: 12
(PID.TID 0000.0001)   Seconds in section "TS_CORRECTION_STEP  [FORWARD_STEP]":
(PID.TID 0000.0001)           User time:  0.0449943542
(PID.TID 0000.0001)         System time:  0.00200009346
(PID.TID 0000.0001)     Wall clock time:  0.0656971931
(PID.TID 0000.0001)          No. starts: 12
(PID.TID 0000.0001)           No. stops: 12
(PID.TID 0000.0001)   Seconds in section "DO_STATEVARS_TAVE   [FORWARD_STEP]":
(PID.TID 0000.0001)           User time:  0.621902943
(PID.TID 0000.0001)         System time:  0.00799810886
(PID.TID 0000.0001)     Wall clock time:  0.79852581
(PID.TID 0000.0001)          No. starts: 12
(PID.TID 0000.0001)           No. stops: 12
(PID.TID 0000.0001)   Seconds in section "MONITOR             [FORWARD_STEP]":
(PID.TID 0000.0001)           User time:  1.16882181
(PID.TID 0000.0001)         System time:  0.00699901581
(PID.TID 0000.0001)     Wall clock time:  1.75726795
(PID.TID 0000.0001)          No. starts: 12
(PID.TID 0000.0001)           No. stops: 12
(PID.TID 0000.0001)   Seconds in section "DO_THE_MODEL_IO     [FORWARD_STEP]":
(PID.TID 0000.0001)           User time:  1.44677925
(PID.TID 0000.0001)         System time:  0.489924908
(PID.TID 0000.0001)     Wall clock time:  15.9703803
(PID.TID 0000.0001)          No. starts: 12
(PID.TID 0000.0001)           No. stops: 12
(PID.TID 0000.0001)   Seconds in section "WRITE_CHECKPOINT    [FORWARD_STEP]":
(PID.TID 0000.0001)           User time:  0.392941475
(PID.TID 0000.0001)         System time:  0.13898015
(PID.TID 0000.0001)     Wall clock time:  1.01697445
(PID.TID 0000.0001)          No. starts: 12
(PID.TID 0000.0001)           No. stops: 12
(PID.TID 0000.0001)   Seconds in section "WRITE_CHECKPOINT       [THE_MODEL_MAIN]":
(PID.TID 0000.0001)           User time:  0.
(PID.TID 0000.0001)         System time:  0.
(PID.TID 0000.0001)     Wall clock time:  3.60012054E-05
(PID.TID 0000.0001)          No. starts: 1
(PID.TID 0000.0001)           No. stops: 1
(PID.TID 0000.0001) // ======================================================
(PID.TID 0000.0001) // Tile <-> Tile communication statistics
(PID.TID 0000.0001) // ======================================================
(PID.TID 0000.0001) // o Tile number: 000001
(PID.TID 0000.0001) //         No. X exchanges =              0
(PID.TID 0000.0001) //            Max. X spins =              0
(PID.TID 0000.0001) //            Min. X spins =     1000000000
(PID.TID 0000.0001) //          Total. X spins =              0
(PID.TID 0000.0001) //            Avg. X spins =       0.00E+00
(PID.TID 0000.0001) //         No. Y exchanges =              0
(PID.TID 0000.0001) //            Max. Y spins =              0
(PID.TID 0000.0001) //            Min. Y spins =     1000000000
(PID.TID 0000.0001) //          Total. Y spins =              0
(PID.TID 0000.0001) //            Avg. Y spins =       0.00E+00
(PID.TID 0000.0001) // o Thread number: 000001
(PID.TID 0000.0001) //            No. barriers =          15530
(PID.TID 0000.0001) //      Max. barrier spins =              1
(PID.TID 0000.0001) //      Min. barrier spins =              1
(PID.TID 0000.0001) //     Total barrier spins =          15530
(PID.TID 0000.0001) //      Avg. barrier spins =       1.00E+00
