(PID.TID 0000.0001) 
(PID.TID 0000.0001) // ======================================================
(PID.TID 0000.0001) //                      MITgcm UV
(PID.TID 0000.0001) //                      =========
(PID.TID 0000.0001) // ======================================================
(PID.TID 0000.0001) // execution environment starting up...
(PID.TID 0000.0001) // Run starting Wed Apr  1 14:19:48 1998
(PID.TID 0000.0001) // on melville.lcs.mit.edu
(PID.TID 0000.0001) // account cnh
(PID.TID 0000.0001) // MITgcm UV Release: $Name:  $
(PID.TID 0000.0001) 
(PID.TID 0000.0001) // =======================================================
(PID.TID 0000.0001) // Execution Environment parameter file "eedata"
(PID.TID 0000.0001) // =======================================================
(PID.TID 0000.0001) ># Example "eedata" file
(PID.TID 0000.0001) ># Lines beginning "#" are comments
(PID.TID 0000.0001) ># nTx - No. threads per process in X
(PID.TID 0000.0001) ># nTy - No. threads per process in Y
(PID.TID 0000.0001) > &EEPARMS
(PID.TID 0000.0001) > useCubedSphereExchange=.TRUE.,
(PID.TID 0000.0001) ># Activate one line below to support 2, 3 or 6 way multi-threading
(PID.TID 0000.0001) > nTx=1,
(PID.TID 0000.0001) >#nTx=2,
(PID.TID 0000.0001) >#nTx=3,
(PID.TID 0000.0001) >#nTx=6,
(PID.TID 0000.0001) > &
(PID.TID 0000.0001) ># Note: Some systems use & as the
(PID.TID 0000.0001) ># namelist terminator. Other systems
(PID.TID 0000.0001) ># use a / character (as shown here).
(PID.TID 0000.0001) 
(PID.TID 0000.0001) // =======================================================
(PID.TID 0000.0001) // Computational Grid Specification ( see files "SIZE.h" )
(PID.TID 0000.0001) //                                  ( and "eedata"       )
(PID.TID 0000.0001) // =======================================================
(PID.TID 0000.0001)      nPx =    1 ; /* No. processes in X */
(PID.TID 0000.0001)      nPy =    1 ; /* No. processes in Y */
(PID.TID 0000.0001)      nSx =    6 ; /* No. tiles in X per process */
(PID.TID 0000.0001)      nSy =    1 ; /* No. tiles in Y per process */
(PID.TID 0000.0001)      sNx =   32 ; /* Tile size in X */
(PID.TID 0000.0001)      sNy =   32 ; /* Tile size in Y */
(PID.TID 0000.0001)      OLx =    3 ; /* Tile overlap distance in X */
(PID.TID 0000.0001)      OLy =    3 ; /* Tile overlap distance in Y */
(PID.TID 0000.0001)      nTx =    1 ; /* No. threads in X per process */
(PID.TID 0000.0001)      nTy =    1 ; /* No. threads in Y per process */
(PID.TID 0000.0001)       Nr =    5 ; /* No. levels in the vertical   */
(PID.TID 0000.0001)       nX =  192 ; /* Total domain size in X ( = nPx*nSx*sNx ) */
(PID.TID 0000.0001)       nY =   32 ; /* Total domain size in Y ( = nPy*nSy*sNy ) */
(PID.TID 0000.0001)   nTiles =    6 ; /* Total no. tiles per process ( = nSx*nSy ) */
(PID.TID 0000.0001)   nProcs =    1 ; /* Total no. processes ( = nPx*nPy ) */
(PID.TID 0000.0001) nThreads =    1 ; /* Total no. threads per process ( = nTx*nTy ) */
(PID.TID 0000.0001) usingMPI =    F ; /* Flag used to control whether MPI is in use */
(PID.TID 0000.0001)                   /*  note: To execute a program with MPI calls */
(PID.TID 0000.0001)                   /*  it must be launched appropriately e.g     */
(PID.TID 0000.0001)                   /*  "mpirun -np 64 ......"                    */
(PID.TID 0000.0001) 
(PID.TID 0000.0001) // ======================================================
(PID.TID 0000.0001) // Mapping of tiles to threads
(PID.TID 0000.0001) // ======================================================
(PID.TID 0000.0001) // -o- Thread   1, tiles (   1:   6,   1:   1)
(PID.TID 0000.0001) 
(PID.TID 0000.0001) // ======================================================
(PID.TID 0000.0001) // Tile <-> Tile connectvity table
(PID.TID 0000.0001) // ======================================================
(PID.TID 0000.0001) // Tile number: 000001 (process no. = 000001)
(PID.TID 0000.0001) //        WEST: Tile = 000006, Process = 000001, Comm = put
(PID.TID 0000.0001) //                bi = 000006, bj = 000001
(PID.TID 0000.0001) //        EAST: Tile = 000002, Process = 000001, Comm = put
(PID.TID 0000.0001) //                bi = 000002, bj = 000001
(PID.TID 0000.0001) //       SOUTH: Tile = 000001, Process = 000001, Comm = put
(PID.TID 0000.0001) //                bi = 000001, bj = 000001
(PID.TID 0000.0001) //       NORTH: Tile = 000001, Process = 000001, Comm = put
(PID.TID 0000.0001) //                bi = 000001, bj = 000001
(PID.TID 0000.0001) // Tile number: 000002 (process no. = 000001)
(PID.TID 0000.0001) //        WEST: Tile = 000001, Process = 000001, Comm = put
(PID.TID 0000.0001) //                bi = 000001, bj = 000001
(PID.TID 0000.0001) //        EAST: Tile = 000003, Process = 000001, Comm = put
(PID.TID 0000.0001) //                bi = 000003, bj = 000001
(PID.TID 0000.0001) //       SOUTH: Tile = 000002, Process = 000001, Comm = put
(PID.TID 0000.0001) //                bi = 000002, bj = 000001
(PID.TID 0000.0001) //       NORTH: Tile = 000002, Process = 000001, Comm = put
(PID.TID 0000.0001) //                bi = 000002, bj = 000001
(PID.TID 0000.0001) // Tile number: 000003 (process no. = 000001)
(PID.TID 0000.0001) //        WEST: Tile = 000002, Process = 000001, Comm = put
(PID.TID 0000.0001) //                bi = 000002, bj = 000001
(PID.TID 0000.0001) //        EAST: Tile = 000004, Process = 000001, Comm = put
(PID.TID 0000.0001) //                bi = 000004, bj = 000001
(PID.TID 0000.0001) //       SOUTH: Tile = 000003, Process = 000001, Comm = put
(PID.TID 0000.0001) //                bi = 000003, bj = 000001
(PID.TID 0000.0001) //       NORTH: Tile = 000003, Process = 000001, Comm = put
(PID.TID 0000.0001) //                bi = 000003, bj = 000001
(PID.TID 0000.0001) // Tile number: 000004 (process no. = 000001)
(PID.TID 0000.0001) //        WEST: Tile = 000003, Process = 000001, Comm = put
(PID.TID 0000.0001) //                bi = 000003, bj = 000001
(PID.TID 0000.0001) //        EAST: Tile = 000005, Process = 000001, Comm = put
(PID.TID 0000.0001) //                bi = 000005, bj = 000001
(PID.TID 0000.0001) //       SOUTH: Tile = 000004, Process = 000001, Comm = put
(PID.TID 0000.0001) //                bi = 000004, bj = 000001
(PID.TID 0000.0001) //       NORTH: Tile = 000004, Process = 000001, Comm = put
(PID.TID 0000.0001) //                bi = 000004, bj = 000001
(PID.TID 0000.0001) // Tile number: 000005 (process no. = 000001)
(PID.TID 0000.0001) //        WEST: Tile = 000004, Process = 000001, Comm = put
(PID.TID 0000.0001) //                bi = 000004, bj = 000001
(PID.TID 0000.0001) //        EAST: Tile = 000006, Process = 000001, Comm = put
(PID.TID 0000.0001) //                bi = 000006, bj = 000001
(PID.TID 0000.0001) //       SOUTH: Tile = 000005, Process = 000001, Comm = put
(PID.TID 0000.0001) //                bi = 000005, bj = 000001
(PID.TID 0000.0001) //       NORTH: Tile = 000005, Process = 000001, Comm = put
(PID.TID 0000.0001) //                bi = 000005, bj = 000001
(PID.TID 0000.0001) // Tile number: 000006 (process no. = 000001)
(PID.TID 0000.0001) //        WEST: Tile = 000005, Process = 000001, Comm = put
(PID.TID 0000.0001) //                bi = 000005, bj = 000001
(PID.TID 0000.0001) //        EAST: Tile = 000001, Process = 000001, Comm = put
(PID.TID 0000.0001) //                bi = 000001, bj = 000001
(PID.TID 0000.0001) //       SOUTH: Tile = 000006, Process = 000001, Comm = put
(PID.TID 0000.0001) //                bi = 000006, bj = 000001
(PID.TID 0000.0001) //       NORTH: Tile = 000006, Process = 000001, Comm = put
(PID.TID 0000.0001) //                bi = 000006, bj = 000001
(PID.TID 0000.0001) 
(PID.TID 0000.0001) // =======================================================
(PID.TID 0000.0001) // Model parameter file "data"
(PID.TID 0000.0001) // =======================================================
(PID.TID 0000.0001) ># ====================
(PID.TID 0000.0001) ># | Model parameters |
(PID.TID 0000.0001) ># ====================
(PID.TID 0000.0001) >#
(PID.TID 0000.0001) ># Continuous equation parameters
(PID.TID 0000.0001) > &PARM01
(PID.TID 0000.0001) > tRef=281.089, 289.321, 307.191, 331.377, 432.413,
(PID.TID 0000.0001) > sRef=5*0.,
(PID.TID 0000.0001) > viscAr=0.E3,
(PID.TID 0000.0001) > viscAh=0.E6,
(PID.TID 0000.0001) > viscA4=0.E17,
(PID.TID 0000.0001) > no_slip_sides=.FALSE.,
(PID.TID 0000.0001) > no_slip_bottom=.FALSE.,
(PID.TID 0000.0001) > diffKhT=0.E3,
(PID.TID 0000.0001) > diffKrT=0.,
(PID.TID 0000.0001) > diffK4T=0.E17,
(PID.TID 0000.0001) > diffKrS=0.E2,
(PID.TID 0000.0001) > diffKhS=0.E3,
(PID.TID 0000.0001) > diffK4S=0.E17,
(PID.TID 0000.0001) > buoyancyRelation='ATMOSPHERIC',
(PID.TID 0000.0001) > eosType='IDEALGAS',
(PID.TID 0000.0001) > Integr_GeoPot=1,
(PID.TID 0000.0001) > gravity=9.81,
(PID.TID 0000.0001) > rhonil=1.0,
(PID.TID 0000.0001) > rhoConst=1.0,
(PID.TID 0000.0001) > rigidLid=.FALSE.,
(PID.TID 0000.0001) > implicitFreeSurface=.TRUE.,
(PID.TID 0000.0001) >#exactConserv=.TRUE.,
(PID.TID 0000.0001) >#uniformLin_PhiSurf=.FALSE.,
(PID.TID 0000.0001) > staggerTimeStep=.TRUE.,
(PID.TID 0000.0001) > nonHydrostatic=.FALSE.,
(PID.TID 0000.0001) > readBinaryPrec=64,
(PID.TID 0000.0001) > writeBinaryPrec=64,
(PID.TID 0000.0001) > hFacMin=1.0,
(PID.TID 0000.0001) > saltAdvScheme=77,
(PID.TID 0000.0001) > vectorInvariantMomentum=.TRUE.,
(PID.TID 0000.0001) > &
(PID.TID 0000.0001) >
(PID.TID 0000.0001) ># Elliptic solver parameters
(PID.TID 0000.0001) > &PARM02
(PID.TID 0000.0001) > cg2dMaxIters=200,
(PID.TID 0000.0001) >#cg2dTargetResidual=1.E-12,
(PID.TID 0000.0001) > cg2dTargetResWunit=1.E-17,
(PID.TID 0000.0001) > &
(PID.TID 0000.0001) >
(PID.TID 0000.0001) ># Time stepping parameters
(PID.TID 0000.0001) > &PARM03
(PID.TID 0000.0001) > niter0=0,
(PID.TID 0000.0001) > nTimeSteps=10,
(PID.TID 0000.0001) > monitorFreq=1.,
(PID.TID 0000.0001) >#endTime=31104000.,
(PID.TID 0000.0001) > deltaT=600.0,
(PID.TID 0000.0001) > abEps=0.1,
(PID.TID 0000.0001) > cAdjFreq=0.,
(PID.TID 0000.0001) > pChkptFreq=2592000.0,
(PID.TID 0000.0001) > dumpFreq=2592000.0,
(PID.TID 0000.0001) > taveFreq=2592000.0,
(PID.TID 0000.0001) >#monitorFreq=86400.,
(PID.TID 0000.0001) > &
(PID.TID 0000.0001) >
(PID.TID 0000.0001) ># Gridding parameters
(PID.TID 0000.0001) > &PARM04
(PID.TID 0000.0001) > usingCartesianGrid=.FALSE.,
(PID.TID 0000.0001) > usingSphericalPolarGrid=.FALSE.,
(PID.TID 0000.0001) > usingCurvilinearGrid=.TRUE.,
(PID.TID 0000.0001) > delR=1.E4, 2.5E4, 3.E4, 2.E4, 1.5E4,
(PID.TID 0000.0001) > Ro_SeaLevel=1.E5,
(PID.TID 0000.0001) > groundAtK1=.TRUE.,
(PID.TID 0000.0001) > rSphere=6370.E3,
(PID.TID 0000.0001) > &
(PID.TID 0000.0001) >
(PID.TID 0000.0001) ># Input datasets
(PID.TID 0000.0001) > &PARM05
(PID.TID 0000.0001) > bathyFile='orography_fullcell.cs.bin',
(PID.TID 0000.0001) > &
(PID.TID 0000.0001) 
(PID.TID 0000.0001)  MDSREADFIELD: opening global file: LONC.bin
(PID.TID 0000.0001)  MDSREADFIELD: opening global file: LATC.bin
(PID.TID 0000.0001)  MDSREADFIELD: opening global file: DXF.bin
(PID.TID 0000.0001)  MDSREADFIELD: opening global file: DYF.bin
(PID.TID 0000.0001)  MDSREADFIELD: opening global file: RA.bin
(PID.TID 0000.0001)  MDSREADFIELD: opening global file: LONG.bin
(PID.TID 0000.0001)  MDSREADFIELD: opening global file: LATG.bin
(PID.TID 0000.0001)  MDSREADFIELD: opening global file: DXV.bin
(PID.TID 0000.0001)  MDSREADFIELD: opening global file: DYU.bin
(PID.TID 0000.0001)  MDSREADFIELD: opening global file: RAZ.bin
(PID.TID 0000.0001)  MDSREADFIELD: opening global file: DXC.bin
(PID.TID 0000.0001)  MDSREADFIELD: opening global file: DYC.bin
(PID.TID 0000.0001)  MDSREADFIELD: opening global file: RAW.bin
(PID.TID 0000.0001)  MDSREADFIELD: opening global file: RAS.bin
(PID.TID 0000.0001)  MDSREADFIELD: opening global file: DXG.bin
(PID.TID 0000.0001)  MDSREADFIELD: opening global file: DYG.bin
(PID.TID 0000.0001) %MON XC_max                       =   1.7854351589505E+02
(PID.TID 0000.0001) %MON XC_min                       =  -1.7854351589505E+02
(PID.TID 0000.0001) %MON XC_mean                      =   5.2180482157382E-15
(PID.TID 0000.0001) %MON XC_sd                        =   1.0355545336287E+02
(PID.TID 0000.0001) %MON XG_max                       =   1.8000000000000E+02
(PID.TID 0000.0001) %MON XG_min                       =  -1.7708797161002E+02
(PID.TID 0000.0001) %MON XG_mean                      =   1.8796250616675E+00
(PID.TID 0000.0001) %MON XG_sd                        =   1.0410625309932E+02
(PID.TID 0000.0001) %MON DXC_max                      =   3.2375185836900E+05
(PID.TID 0000.0001) %MON DXC_min                      =   1.1142031410131E+05
(PID.TID 0000.0001) %MON DXC_mean                     =   2.8605689051214E+05
(PID.TID 0000.0001) %MON DXC_sd                       =   3.4042087138252E+04
(PID.TID 0000.0001) %MON DXF_max                      =   3.2369947500827E+05
(PID.TID 0000.0001) %MON DXF_min                      =   1.2020820513318E+05
(PID.TID 0000.0001) %MON DXF_mean                     =   2.8605437324820E+05
(PID.TID 0000.0001) %MON DXF_sd                       =   3.4050524252539E+04
(PID.TID 0000.0001) %MON DXG_max                      =   3.2375195872773E+05
(PID.TID 0000.0001) %MON DXG_min                      =   1.0098378008791E+05
(PID.TID 0000.0001) %MON DXG_mean                     =   2.8603818508931E+05
(PID.TID 0000.0001) %MON DXG_sd                       =   3.4140406908005E+04
(PID.TID 0000.0001) %MON DXV_max                      =   3.2380418162750E+05
(PID.TID 0000.0001) %MON DXV_min                      =   8.0152299824136E+04
(PID.TID 0000.0001) %MON DXV_mean                     =   2.8603970633619E+05
(PID.TID 0000.0001) %MON DXV_sd                       =   3.4145142117723E+04
(PID.TID 0000.0001) %MON YC_max                       =   8.7940663871962E+01
(PID.TID 0000.0001) %MON YC_min                       =  -8.7940663871962E+01
(PID.TID 0000.0001) %MON YC_mean                      =   3.7701323544563E-16
(PID.TID 0000.0001) %MON YC_sd                        =   3.8676242969072E+01
(PID.TID 0000.0001) %MON YG_max                       =   9.0000000000000E+01
(PID.TID 0000.0001) %MON YG_min                       =  -9.0000000000000E+01
(PID.TID 0000.0001) %MON YG_mean                      =  -1.2011668255785E-15
(PID.TID 0000.0001) %MON YG_sd                        =   3.9086186579984E+01
(PID.TID 0000.0001) %MON DYC_max                      =   3.2375185836900E+05
(PID.TID 0000.0001) %MON DYC_min                      =   1.1142031410131E+05
(PID.TID 0000.0001) %MON DYC_mean                     =   2.8605689051214E+05
(PID.TID 0000.0001) %MON DYC_sd                       =   3.4042087138252E+04
(PID.TID 0000.0001) %MON DYF_max                      =   3.2369947500827E+05
(PID.TID 0000.0001) %MON DYF_min                      =   1.2020820513318E+05
(PID.TID 0000.0001) %MON DYF_mean                     =   2.8605437324820E+05
(PID.TID 0000.0001) %MON DYF_sd                       =   3.4050524252539E+04
(PID.TID 0000.0001) %MON DYG_max                      =   3.2375195872773E+05
(PID.TID 0000.0001) %MON DYG_min                      =   1.0098378008791E+05
(PID.TID 0000.0001) %MON DYG_mean                     =   2.8603818508931E+05
(PID.TID 0000.0001) %MON DYG_sd                       =   3.4140406908005E+04
(PID.TID 0000.0001) %MON DYU_max                      =   3.2380418162750E+05
(PID.TID 0000.0001) %MON DYU_min                      =   8.0152299824136E+04
(PID.TID 0000.0001) %MON DYU_mean                     =   2.8603970633619E+05
(PID.TID 0000.0001) %MON DYU_sd                       =   3.4145142117723E+04
(PID.TID 0000.0001) %MON RA_max                       =   1.0479260248419E+11
(PID.TID 0000.0001) %MON RA_min                       =   1.4019007022556E+10
(PID.TID 0000.0001) %MON RA_mean                      =   8.2992246709265E+10
(PID.TID 0000.0001) %MON RA_sd                        =   1.7509089299457E+10
(PID.TID 0000.0001) %MON RAW_max                      =   1.0480965274559E+11
(PID.TID 0000.0001) %MON RAW_min                      =   1.2166903467143E+10
(PID.TID 0000.0001) %MON RAW_mean                     =   8.2992246709235E+10
(PID.TID 0000.0001) %MON RAW_sd                       =   1.7481917919657E+10
(PID.TID 0000.0001) %MON RAS_max                      =   1.0480965274559E+11
(PID.TID 0000.0001) %MON RAS_min                      =   1.2166903467143E+10
(PID.TID 0000.0001) %MON RAS_mean                     =   8.2992246709235E+10
(PID.TID 0000.0001) %MON RAS_sd                       =   1.7481917919657E+10
(PID.TID 0000.0001) %MON RAZ_max                      =   1.0484349334619E+11
(PID.TID 0000.0001) %MON RAZ_min                      =   8.8317900612505E+09
(PID.TID 0000.0001) %MON RAZ_mean                     =   8.2992246709234E+10
(PID.TID 0000.0001) %MON RAZ_sd                       =   1.7482297311044E+10
(PID.TID 0000.0001)  MDSREADFIELD: opening global file: orography_fullcell.cs.bin
(PID.TID 0000.0001) // =======================================================
(PID.TID 0000.0001) // Field Model R_low (ini_masks_etc) at iteration          1
(PID.TID 0000.0001) // CMIN =          1.000000000000000E+32
(PID.TID 0000.0001) // CMAX =         -1.000000000000000E+32
(PID.TID 0000.0001) // CINT =          0.000000000000000E+00
(PID.TID 0000.0001) // SYMBOLS (CMIN->CMAX): -abcdefghijklmnopqrstuvwxyz+
(PID.TID 0000.0001) //                  0.0: .
(PID.TID 0000.0001) // RANGE I (Lo:Hi:Step):(  -2: 195:   1)
(PID.TID 0000.0001) // RANGE J (Lo:Hi:Step):(  35:  -2:  -1)
(PID.TID 0000.0001) // RANGE K (Lo:Hi:Step):(   1:   1:   1)
(PID.TID 0000.0001) // =======================================================
(PID.TID 0000.0001) K =   1
(PID.TID 0000.0001) //                I=7       I=17      I=27      I=31      I=41      I=51      I=61      I=65      I=75      I=85      I=95      I=99      I=109     I=119     I=129     I=133     I=143     I=153     I=163     I=167     I=177     I=187
(PID.TID 0000.0001) // |--J--|**0123456|890123456|890123456|890123450|234567890|234567890|234567890|234567234|678901234|678901234|678901234|678945678|012345678|012345678|012345678|016789012|456789012|456789012|456789012|890123456|890123456|890123456|89012345
(PID.TID 0000.0001) //     35 ....................................................................................................................................................................................................................................
(PID.TID 0000.0001) //     34 ....................................................................................................................................................................................................................................
(PID.TID 0000.0001) //     33 ....................................................................................................................................................................................................................................
(PID.TID 0000.0001) //     32 ....................................................................................................................................................................................................................................
(PID.TID 0000.0001) //     31 ....................................................................................................................................................................................................................................
(PID.TID 0000.0001) //     30 ....................................................................................................................................................................................................................................
(PID.TID 0000.0001) //     29 ....................................................................................................................................................................................................................................
(PID.TID 0000.0001) //     28 ....................................................................................................................................................................................................................................
(PID.TID 0000.0001) //     27 ....................................................................................................................................................................................................................................
(PID.TID 0000.0001) //     26 ....................................................................................................................................................................................................................................
(PID.TID 0000.0001) //     25 ....................................................................................................................................................................................................................................
(PID.TID 0000.0001) //     24 ....................................................................................................................................................................................................................................
(PID.TID 0000.0001) //     23 ....................................................................................................................................................................................................................................
(PID.TID 0000.0001) //     22 ....................................................................................................................................................................................................................................
(PID.TID 0000.0001) //     21 ....................................................................................................................................................................................................................................
(PID.TID 0000.0001) //     20 ....................................................................................................................................................................................................................................
(PID.TID 0000.0001) //     19 ....................................................................................................................................................................................................................................
(PID.TID 0000.0001) //     18 ....................................................................................................................................................................................................................................
(PID.TID 0000.0001) //     17 ....................................................................................................................................................................................................................................
(PID.TID 0000.0001) //     16 ....................................................................................................................................................................................................................................
(PID.TID 0000.0001) //     15 ....................................................................................................................................................................................................................................
(PID.TID 0000.0001) //     14 ....................................................................................................................................................................................................................................
(PID.TID 0000.0001) //     13 ....................................................................................................................................................................................................................................
(PID.TID 0000.0001) //     12 ....................................................................................................................................................................................................................................
(PID.TID 0000.0001) //     11 ....................................................................................................................................................................................................................................
(PID.TID 0000.0001) //     10 ....................................................................................................................................................................................................................................
(PID.TID 0000.0001) //      9 ....................................................................................................................................................................................................................................
(PID.TID 0000.0001) //      8 ....................................................................................................................................................................................................................................
(PID.TID 0000.0001) //      7 ....................................................................................................................................................................................................................................
(PID.TID 0000.0001) //      6 ....................................................................................................................................................................................................................................
(PID.TID 0000.0001) //      5 ....................................................................................................................................................................................................................................
(PID.TID 0000.0001) //      4 ....................................................................................................................................................................................................................................
(PID.TID 0000.0001) //      3 ....................................................................................................................................................................................................................................
(PID.TID 0000.0001) //      2 ....................................................................................................................................................................................................................................
(PID.TID 0000.0001) //      1 ....................................................................................................................................................................................................................................
(PID.TID 0000.0001) //      0 ....................................................................................................................................................................................................................................
(PID.TID 0000.0001) //     -1 ....................................................................................................................................................................................................................................
(PID.TID 0000.0001) //     -2 ....................................................................................................................................................................................................................................
(PID.TID 0000.0001) // =======================================================
(PID.TID 0000.0001) // END OF FIELD                                          =
(PID.TID 0000.0001) // =======================================================
(PID.TID 0000.0001) 
(PID.TID 0000.0001) // =======================================================
(PID.TID 0000.0001) // Field Model Ro_surf (ini_masks_etc) at iteration          1
(PID.TID 0000.0001) // CMIN =          6.500000000000000E+04
(PID.TID 0000.0001) // CMAX =          1.000000000000000E+05
(PID.TID 0000.0001) // CINT =          1.296296296296296E+03
(PID.TID 0000.0001) // SYMBOLS (CMIN->CMAX): -abcdefghijklmnopqrstuvwxyz+
(PID.TID 0000.0001) //                  0.0: .
(PID.TID 0000.0001) // RANGE I (Lo:Hi:Step):(  -2: 195:   1)
(PID.TID 0000.0001) // RANGE J (Lo:Hi:Step):(  35:  -2:  -1)
(PID.TID 0000.0001) // RANGE K (Lo:Hi:Step):(   1:   1:   1)
(PID.TID 0000.0001) // =======================================================
(PID.TID 0000.0001) K =   1
(PID.TID 0000.0001) //                I=7       I=17      I=27      I=31      I=41      I=51      I=61      I=65      I=75      I=85      I=95      I=99      I=109     I=119     I=129     I=133     I=143     I=153     I=163     I=167     I=177     I=187
(PID.TID 0000.0001) // |--J--|**0123456|890123456|890123456|890123450|234567890|234567890|234567890|234567234|678901234|678901234|678901234|678945678|012345678|012345678|012345678|016789012|456789012|456789012|456789012|890123456|890123456|890123456|89012345
(PID.TID 0000.0001) //     35 ...++++++++++++++++++++s++++++sssss......ssss+++++++s+++ssssssssss+s+++++......+++++++++++++s++++ss--sss+++++++......++++++++++++++++++++++++++++++++......++++++++++++++++++++++++++++++++......++++++++++++++++++++++++++++++++...
(PID.TID 0000.0001) //     34 ...+++++++++++++++++++s++s+++ssssss......sss++++++++ssss-s-ssssss++ss++++......++++++++++++++++++ss--sss+++++++......++++++++++++++++++++++++++++++++......++++++++++++++++++ssss++++++++++......++++++++++++++++++++++++++++++++...
(PID.TID 0000.0001) //     33 ...+++++++++++++++++sss+ss++sssssss......sss+++++++sssssss--ssssss+s+++++......++++++++++++++++++sssssss+++++++......++++++++++++++++++++++++++++++++......+++++++++++++++++++sssss++++++++......++++++++++++++++++++++++++++++++...
(PID.TID 0000.0001) //     32 +++++++++++++++++++s++++s+++ssss+++sss+++sss+++s+++sss-sssssssssss+++++++++++++++++++++++++++++++sss-sss++++++++++++++++++++++++++++++++++++++++++++++++++++++++++++++++++++++sssss+++++++++++++++++++++++++++++++++++++++++++++++++
(PID.TID 0000.0001) //     31 +++++++++++++++++sss++++++++s++s++++ss++++ssssss++ss--sssssssssss++++++++++++++++++++++++++++++++sssssss++++++++++++++++++++++++++++++++++++++++++++++++++++++++++++++++++++++++ssss++++++++++++++++++++++++++++++++++++++++++++++++
(PID.TID 0000.0001) //     30 +++++++++++++++++s+++++++++++++sss++ssss++ss-ssss-----s------sss+++++++++++++++++++++++++++++++++ssssss++++++++++++++++++++++++++++++++++++++++++++++++++++++++++++++++++++++++++sssss++++++++++++++++++++++++++++++++++++++++++++++
(PID.TID 0000.0001) //     29 +++++++++++++++++++sss+++++++++ssss++ssss++sssssss-----------sss+++++++++++++++++++++++++ss+++++++sssss+++++++++++++++++++++++++++++++++++++++++++++++++++++++++++++++++++++++++s+++++++++++++++++++++++++++++++++++++++++++++++++++
(PID.TID 0000.0001) //     28 +++++++++++++++++ssss+++++++++sssss+++sss+++sssssss+s--------sss+++++++++++++++++++++++++ss+++++++sssss+++++++++++++++++++++++++++++++++++++++++++++++++++++++++++++++++++++++++++++++++++++++++++++++++++++++++++++++++++++++++++++
(PID.TID 0000.0001) //     27 +++++++++++++++++sss++s++++++++sssss++ssss+++ssssss++s-------sss++++++++++++++++++++++++++++++++++sssss++++++++++++++++++++++++++++++++++++++++++++++++++++++++++++++++++s++++++++++++++++++++++++++++++++++++++++++++++++++++++++++
(PID.TID 0000.0001) //     26 ++++++++++++++++++++sssss++++++++sss+++sss+++++++++++++sssss--ss++++++++++++++++++++++++++++++++++++sss++++++++++++++++++++++++++++++++++++++++++++++++++++++++++++++++++s+++++++ss+++++++++++++++++++++++++++++++++++++++++++++++++
(PID.TID 0000.0001) //     25 ++++++++++++++++++++sssssssss++++sss+++sss+++++++++ss+ss++sssss+++++++++++++++++++++++++++++++++++++sss+++++++++++++++++++++++++++++++++++++++++++++++++++++++++++++++++ss++++++s--sss++++++++++++++++++++++++++++++++++++++++++++++
(PID.TID 0000.0001) //     24 ++++++++++++++++++++sssssssss++s+ssss++ssss+++++++++++++++ssss++++++++++++++++++++++++++++++++++++++sss++++++++++++++++++++++++++++++++++++++++++++++++++++++++++++++++s++++++++------ss++++++++++++++++++++++++++++++++++++++++++++
(PID.TID 0000.0001) //     23 ++++++++++++++++++++ssss++sss++s++ssss++ssss++++++++s+++++++ss++++++++++++++++++++++++++-+++++++++++sss+++++++++++++++++++++++++++++++++++++++++++++++++++++++++++++++++s++++++s+++++++sss++++ss++++++++++++++++++++++++++++++++++++
(PID.TID 0000.0001) //     22 ++++++++++++++++++++++s+++sssssss+sss+s+sss+++++++++s++++++++++++++++++++++++++++++++++++-s++++++++++ss+++++++++++++++++++++++++++++++++++++++++++++++++++++++++++++++++sss+++s-++++++++sssss+sssss+++++++++++++---s++++++++++++++++
(PID.TID 0000.0001) //     21 +++++++++++++++++++++s++++ssssssss++++ss+++++++++++++++++++++++++++++++++++++++++++++++++--s++s+++++s+sss+++++++++++++++++++++++++++++++++++++++++++++++++++++++++++++++++ssss-++++++++++++ss++++ss++++++++++++-------s+++++++++++++
(PID.TID 0000.0001) //     20 +++++++++++++++ss++++sss++sss++s-ssss+-ssss++++++++++++++++++++++++++++++++++++++++++++++----+s++++++s+++++++++++++++++++++++++++++++++++++++++++++++++++++++++++++++++++++s+++++++++++++++++++++++++++++++++++s-------+++++++++++++
(PID.TID 0000.0001) //     19 ++++++++++++++++++++++ssssssss+sssss++ssss++++++++++++++++++++++++++++++++++++++++++++++++--sss++++++s+++++++++++++++++++++++++++++++++++++++++++++++++++++++ss++++++++++++++++++++++++++++++++++++++++++++s+++s-----ss+++++++++++++
(PID.TID 0000.0001) //     18 +++++++++++++++++++++++sssssssssss++++ss++++++++++++++++++++++++++++++++++++ss+++++++++++++ss++++++++++++++++++++++++++++++++++++++++++++++++++++++++++++++++++++++++++++++++++++++++++++++++++++++++++++++s+++s-------s++++++++++++
(PID.TID 0000.0001) //     17 +++++++++++++++++++++++ss+++sssss+++++s++++++++++++++++++++++++++s+++++++++++s++++++++++++++++++++++++++++++++++++++++++++++++++++++++++++++++++++++++++++++++++++++++++++++++++++++++++++++++++++++++++++++ssss--------s+++++++++++
(PID.TID 0000.0001) //     16 +++++++++++++++++++++++ss++sss+ss+++++s++++++++++++++++++++++++++++++++++++++ss+++++++++++++++++++++++s+++++++++++++++++++++++++++++++++++++++++++++++++++++++++++++++++++++++++++++++++++++++++++++++++++++s--s---------+++++++++++
(PID.TID 0000.0001) //     15 ++++++++++++++++++++++++ssssssss+++++++++++++++++++++++++++++++++++++++++++++++s++++ss+++++++++++++++++s++++++++++++++++++++++++++++++++++++++++++++++++++++++++++++++++++++++++++++++++++++++++++++++++++++sssss--------+++++++++++
(PID.TID 0000.0001) //     14 ++++s+++++++++++++++++++ssssssss+++++++++++++++++++++++++++++++++++++++++++++++s+++++sss++++++++++++++ss++++++++++++++++++++++++++++++++++++++++++++++++ssssss++++++s++++++++++++++++++++++++++++++++++++++++ss++s-----s++++++++++++
(PID.TID 0000.0001) //     13 ++sss+++++++++++++++++++ssssssss+++++++++++++++++++++++++++++++++++++++++++++++ss++++++++++++++++++++++s++++++++++++++++++++++++++++++++++++++++++++++++ssssssss++sss+++++++++++++++++++++++++++++++++++++++++s+++s----+++++++++++++
(PID.TID 0000.0001) //     12 ++sss+++++++++++++++++++ssssssss+++++++++++++++++++++++++++++++++++++++++++++++++s+++++++++++++++++++ssss+s+++++++++++++++++++++++++++++++++++++++++++++ssss--sssss+++++++++++++++++++++++++++++++++++++++++++++++s---s+++++++++++++
(PID.TID 0000.0001) //     11 +ssss++++++++++++++++++sssssssss++++++++++++++++++++++++++++++++++++++++++++++ss+++++++++++++++++++sssss++++++++++++++++++++++++++++++++++++++++++++++++ss-s--sss+++++++++++++++++++++++++++++++++++++++++++++++++ss--s+++++++++++++
(PID.TID 0000.0001) //     10 ssss++++++++++++++++++++sssssss++++++++++++++++++++++++++++++++++++++++++++++++ss+++++++++++++++++++sss+++++++++++++++++++++++++++++++++++++++++++++++++ssssssss++++++++++++++++++++++++++++++++++++++++++++++++++++++++++++++++++++
(PID.TID 0000.0001) //      9 ssss++++++++++++++++++++ssssss+++++++++++++++++++++++++++++++++++++++++++++++++++++++++++++++++sss++++ss++++++++++++++++++++++++++++++++++++++++++++++++ssssss++++++++++++++++++++++++++++++++++++++++++++++++++++++++++++++++++++++
(PID.TID 0000.0001) //      8 ss++++++++++++++++++++++ssssss++++++++++++++++++++++++++++++++++++ss++sss++++++++++++++++++++++ss+++++ss+++++++++++++++++++++++++++++++++++++++++++++++++sssss++++++++++++++++++++++++++++++++++++++++++++++++++++++++++++++++++++++
(PID.TID 0000.0001) //      7 s+++++++++++++++++++++++sssss+++++++++++++++++++++++++++++++++++++sssssss++++sss+++++++++++++++sssssssssss++++++++++++++++++++++++++++++++++++++++++++++++++++++++++++++++++++++++++++++++++++++++++++++++++++++++++++++++++++++++++
(PID.TID 0000.0001) //      6 s++++++++++++++++++++++++ssss+++++++++++++++++++++++++++++++++++++ssssss++++++sss++++++++++++++++ssssssss+++++++++++++++++++++++++++++++++++++++++s+++++++++++++++++++++++++++++++++++++++++++++++++++++++++++++++++++++++++++++++++
(PID.TID 0000.0001) //      5 +++++++++++++++++++++++++sss++++++++++++++++++++++++++++++++++++++ss++++++++++sssss+++++++++++++++sssss+++++++++++++++++++++++++++++++++++++++++++++++++++++++++++++++++++++++++++++++++++++++++++++++++++++++++++++++++++++++++++++
(PID.TID 0000.0001) //      4 ++++++++++++++++++++++++++++++++++++++++++++++++++++++++++++++++++++++++++++ssssssss++++++++++sssssssss++++++++++++++++++++++++++++++++s+++s++++++++++++++++++++++++++++++++++++++++++++++++++++++++++++++++++++++++++++++++++++++++
(PID.TID 0000.0001) //      3 ++++++++++++++++++++++++++++++++++++++++++++++++++++++++++++++++++++++++++++s++ssss+++++++s+++ssssssssss+s++++++++++++++++++++++++++++++++++++++++++++++++++++++++++++++++++++++++++++++++++++++++++++++++++++++++++++++++++++++++++
(PID.TID 0000.0001) //      2 ++++++++++++++++++++++++++++++++++++++++++++++++++++++++++++++++++++++++++++s++sss++++++++ssss-s-ssssss++ss+++++++++++++++++++++++++++++++++++++++++++++++++++++++++++++++++++++++++++++++++++++++++++++++++++++++++++++++++++++++++
(PID.TID 0000.0001) //      1 +++++++++++++++++++++++++++++++++++++++++++++++++++++++++++++++++++++++++++++++sss+++++++sssssss--ssssss+s++++++++++++++++++++++++++++++++++++++++++++++++++++++++++++++++++++++++++++++++++++++++++++++++++++++++++++++++++++++++++
(PID.TID 0000.0001) //      0 ...++++++++++++++++++++++++++++++++......++++++++++++++++++++++++++++++++......sss+++s+++sss-sssssssssss+++++++......++++++++++++++++++++++++ss++++++......++++++++++++++++++++++++++++++++......++++++++++++++++++++++++++++++++...
(PID.TID 0000.0001) //     -1 ...++++++++++++++++++++++++++++++++......++++++++++++++++++++++++++++++++......+ssssss++ss--sssssssssss++++++++......++++++++++++++++++++++++sss+++++......++++++++++++++++++++++++++++++++......++++++++++++++++++++++++++++++++...
(PID.TID 0000.0001) //     -2 ...++++++++++++++++++++++++++++++++......++++++++++++++++++++++++++++++++......+ss-ssss-----s------sss+++++++++......++++++++++++++++++++++++sss+++++......++++++++++++++++++++++++++++++++......++++++++++++++++++++++++++s+++++...
(PID.TID 0000.0001) // =======================================================
(PID.TID 0000.0001) // END OF FIELD                                          =
(PID.TID 0000.0001) // =======================================================
(PID.TID 0000.0001) 
(PID.TID 0000.0001) // =======================================================
(PID.TID 0000.0001) // Field hFacC at iteration          1
(PID.TID 0000.0001) // CMIN =          1.000000000000000E+00
(PID.TID 0000.0001) // CMAX =          1.000000000000000E+00
(PID.TID 0000.0001) // CINT =          0.000000000000000E+00
(PID.TID 0000.0001) // SYMBOLS (CMIN->CMAX): -abcdefghijklmnopqrstuvwxyz+
(PID.TID 0000.0001) //                  0.0: .
(PID.TID 0000.0001) // RANGE I (Lo:Hi:Step):(  -2: 195:   1)
(PID.TID 0000.0001) // RANGE J (Lo:Hi:Step):(  35:  -2:  -1)
(PID.TID 0000.0001) // RANGE K (Lo:Hi:Step):(   1:   1:   1)
(PID.TID 0000.0001) // =======================================================
(PID.TID 0000.0001) K =   1
(PID.TID 0000.0001) //                I=7       I=17      I=27      I=31      I=41      I=51      I=61      I=65      I=75      I=85      I=95      I=99      I=109     I=119     I=129     I=133     I=143     I=153     I=163     I=167     I=177     I=187
(PID.TID 0000.0001) // |--J--|**0123456|890123456|890123456|890123450|234567890|234567890|234567890|234567234|678901234|678901234|678901234|678945678|012345678|012345678|012345678|016789012|456789012|456789012|456789012|890123456|890123456|890123456|89012345
(PID.TID 0000.0001) //     35 ...--------------------.------...............-------.---..........-.-----......-------------.----.......-------......--------------------------------......--------------------------------......--------------------------------...
(PID.TID 0000.0001) //     34 ...-------------------.--.---...............--------.............--..----......------------------.......-------......--------------------------------......------------------....----------......--------------------------------...
(PID.TID 0000.0001) //     33 ...-----------------...-..--................-------...............-.-----......------------------.......-------......--------------------------------......-------------------.....--------......--------------------------------...
(PID.TID 0000.0001) //     32 -------------------.----.---....---...---...---.---...............-------------------------------.......----------------------------------------------------------------------.....-------------------------------------------------
(PID.TID 0000.0001) //     31 -----------------...--------.--.----..----......--...............--------------------------------.......------------------------------------------------------------------------....------------------------------------------------
(PID.TID 0000.0001) //     30 -----------------.-------------...--....--......................---------------------------------......--------------------------------------------------------------------------.....----------------------------------------------
(PID.TID 0000.0001) //     29 -------------------...---------....--....--.....................-------------------------..-------.....-------------------------------------------------------------------------.---------------------------------------------------
(PID.TID 0000.0001) //     28 -----------------....---------.....---...---.......-............-------------------------..-------.....-----------------------------------------------------------------------------------------------------------------------------
(PID.TID 0000.0001) //     27 -----------------...--.--------.....--....---......--...........----------------------------------.....------------------------------------------------------------------.----------------------------------------------------------
(PID.TID 0000.0001) //     26 --------------------.....--------...---...-------------.........------------------------------------...------------------------------------------------------------------.-------..-------------------------------------------------
(PID.TID 0000.0001) //     25 --------------------.........----...---...---------..-..--.....-------------------------------------...-----------------------------------------------------------------..------......----------------------------------------------
(PID.TID 0000.0001) //     24 --------------------.........--.-....--....---------------....--------------------------------------...----------------------------------------------------------------.--------........--------------------------------------------
(PID.TID 0000.0001) //     23 --------------------....--...--.--....--....--------.-------..--------------------------.-----------...-----------------------------------------------------------------.------.-------...----..------------------------------------
(PID.TID 0000.0001) //     22 ----------------------.---.......-...-.-...---------.------------------------------------..----------..-----------------------------------------------------------------...---..--------.....-.....-------------....----------------
(PID.TID 0000.0001) //     21 ---------------------.----........----..-------------------------------------------------...--.-----.-...-----------------------------------------------------------------.....------------..----..------------........-------------
(PID.TID 0000.0001) //     20 ---------------..----...--...--......-.....----------------------------------------------....-.------.---------------------------------------------------------------------.-----------------------------------........-------------
(PID.TID 0000.0001) //     19 ----------------------........-.....--....------------------------------------------------.....------.-------------------------------------------------------..--------------------------------------------.---........-------------
(PID.TID 0000.0001) //     18 -----------------------...........----..------------------------------------..-------------..--------------------------------------------------------------------------------------------------------------.---.........------------
(PID.TID 0000.0001) //     17 -----------------------..---.....-----.--------------------------.-----------.------------------------------------------------------------------------------------------------------------------------------.............-----------
(PID.TID 0000.0001) //     16 -----------------------..--...-..-----.--------------------------------------..-----------------------.-----------------------------------------------------------------------------------------------------.............-----------
(PID.TID 0000.0001) //     15 ------------------------........-----------------------------------------------.----..-----------------.----------------------------------------------------------------------------------------------------.............-----------
(PID.TID 0000.0001) //     14 ----.-------------------........-----------------------------------------------.-----...--------------..------------------------------------------------......------.----------------------------------------..--.......------------
(PID.TID 0000.0001) //     13 --...-------------------........-----------------------------------------------..----------------------.------------------------------------------------........--...-----------------------------------------.---.....-------------
(PID.TID 0000.0001) //     12 --...-------------------........-------------------------------------------------.-------------------....-.---------------------------------------------...........-----------------------------------------------.....-------------
(PID.TID 0000.0001) //     11 -....------------------.........----------------------------------------------..-------------------.....------------------------------------------------.........-------------------------------------------------.....-------------
(PID.TID 0000.0001) //     10 ....--------------------.......------------------------------------------------..-------------------...-------------------------------------------------........--------------------------------------------------------------------
(PID.TID 0000.0001) //      9 ....--------------------......-----------------------------------------------------------------...----..------------------------------------------------......----------------------------------------------------------------------
(PID.TID 0000.0001) //      8 ..----------------------......------------------------------------..--...----------------------..-----..-------------------------------------------------.....----------------------------------------------------------------------
(PID.TID 0000.0001) //      7 .-----------------------.....-------------------------------------.......----...---------------...........--------------------------------------------------------------------------------------------------------------------------
(PID.TID 0000.0001) //      6 .------------------------....-------------------------------------......------...----------------........-----------------------------------------.---------------------------------------------------------------------------------
(PID.TID 0000.0001) //      5 -------------------------...--------------------------------------..----------.....---------------.....-----------------------------------------------------------------------------------------------------------------------------
(PID.TID 0000.0001) //      4 ----------------------------------------------------------------------------........----------.........--------------------------------.---.----------------------------------------------------------------------------------------
(PID.TID 0000.0001) //      3 ----------------------------------------------------------------------------.--....-------.---..........-.--------------------------------------------------------------------------------------------------------------------------
(PID.TID 0000.0001) //      2 ----------------------------------------------------------------------------.--...--------.............--..-------------------------------------------------------------------------------------------------------------------------
(PID.TID 0000.0001) //      1 -------------------------------------------------------------------------------...-------...............-.--------------------------------------------------------------------------------------------------------------------------
(PID.TID 0000.0001) //      0 ...--------------------------------......--------------------------------.........---.---...............-------......------------------------..------......--------------------------------......--------------------------------...
(PID.TID 0000.0001) //     -1 ...--------------------------------......--------------------------------......-......--...............--------......------------------------...-----......--------------------------------......--------------------------------...
(PID.TID 0000.0001) //     -2 ...--------------------------------......--------------------------------......-......................---------......------------------------...-----......--------------------------------......--------------------------.-----...
(PID.TID 0000.0001) // =======================================================
(PID.TID 0000.0001) // END OF FIELD                                          =
(PID.TID 0000.0001) // =======================================================
(PID.TID 0000.0001) 
(PID.TID 0000.0001) // =======================================================
(PID.TID 0000.0001) // Field hFacW at iteration          1
(PID.TID 0000.0001) // CMIN =          1.000000000000000E+00
(PID.TID 0000.0001) // CMAX =          1.000000000000000E+00
(PID.TID 0000.0001) // CINT =          0.000000000000000E+00
(PID.TID 0000.0001) // SYMBOLS (CMIN->CMAX): -abcdefghijklmnopqrstuvwxyz+
(PID.TID 0000.0001) //                  0.0: .
(PID.TID 0000.0001) // RANGE I (Lo:Hi:Step):(  -2: 195:   1)
(PID.TID 0000.0001) // RANGE J (Lo:Hi:Step):(  35:  -2:  -1)
(PID.TID 0000.0001) // RANGE K (Lo:Hi:Step):(   1:   1:   1)
(PID.TID 0000.0001) // =======================================================
(PID.TID 0000.0001) K =   1
(PID.TID 0000.0001) //                I=7       I=17      I=27      I=31      I=41      I=51      I=61      I=65      I=75      I=85      I=95      I=99      I=109     I=119     I=129     I=133     I=143     I=153     I=163     I=167     I=177     I=187
(PID.TID 0000.0001) // |--J--|**0123456|890123456|890123456|890123450|234567890|234567890|234567890|234567234|678901234|678901234|678901234|678945678|012345678|012345678|012345678|016789012|456789012|456789012|456789012|890123456|890123456|890123456|89012345
(PID.TID 0000.0001) //     35 ...--------------------..-----................------..--.............-----.....-------------..---........-------.....---------------------------------.....---------------------------------.....---------------------------------..
(PID.TID 0000.0001) //     34 ...-------------------..-..--................-------..............-...----.....------------------........-------.....---------------------------------.....------------------.....----------.....---------------------------------..
(PID.TID 0000.0001) //     33 ...-----------------.......-.................------..................-----.....------------------........-------.....---------------------------------.....-------------------......--------.....---------------------------------..
(PID.TID 0000.0001) //     32 -------------------..---..--.....--....--....--..--................------------------------------........---------------------------------------------------------------------......------------------------------------------------
(PID.TID 0000.0001) //     31 -----------------....-------..-..---...---.......-................-------------------------------........-----------------------------------------------------------------------.....-----------------------------------------------
(PID.TID 0000.0001) //     30 -----------------..------------....-.....-.......................--------------------------------.......-------------------------------------------------------------------------......---------------------------------------------
(PID.TID 0000.0001) //     29 -------------------....--------.....-.....-......................------------------------...------......------------------------------------------------------------------------..--------------------------------------------------
(PID.TID 0000.0001) //     28 -----------------.....--------......--....--.....................------------------------...------......----------------------------------------------------------------------------------------------------------------------------
(PID.TID 0000.0001) //     27 -----------------....-..-------......-.....--.......-............---------------------------------......-----------------------------------------------------------------..---------------------------------------------------------
(PID.TID 0000.0001) //     26 --------------------......-------....--....------------..........-----------------------------------....-----------------------------------------------------------------..------...------------------------------------------------
(PID.TID 0000.0001) //     25 --------------------..........---....--....--------......-......------------------------------------....----------------------------------------------------------------...-----.......---------------------------------------------
(PID.TID 0000.0001) //     24 --------------------..........-.............--------------.....-------------------------------------....---------------------------------------------------------------..-------.........-----.-------------------------------------
(PID.TID 0000.0001) //     23 --------------------.....-....-..-.....-.....-------..------...-------------------------..----------....----------------------------------------------------------------..-----..------....---...-----------------------------------
(PID.TID 0000.0001) //     22 ----------------------..--..................--------..-----------------------------------...---------...------------------------------------------------.---------------....--...-------............------------.....---------------
(PID.TID 0000.0001) //     21 ---------------------..---.........---...------------------------------------------------....-..----......----------------------------------------------.-----------------......-----------...---...-----------.........------------
(PID.TID 0000.0001) //     20 ---------------...---....-....-.............---------------------------------------------.......-----..--------------------------------------------------------------------..----------------------------------.........------------
(PID.TID 0000.0001) //     19 ----------------------...............-.....-----------------------------------------------......-----..------------------------------------------------------...-------------------------------------------..--.........------------
(PID.TID 0000.0001) //     18 -----------------------............---...-----------------------------------...------------...-------------------------------------------------------------------------------------------------------------..--..........-----------
(PID.TID 0000.0001) //     17 -----------------------...--......----..-------------------------..----------..-----------------------------------------------------------------------------------------------------------------------------..............----------
(PID.TID 0000.0001) //     16 -----------------------...-.......----..------------------------------------....----------------------..----------------------------------------------------------------------------------------------------..............----------
(PID.TID 0000.0001) //     15 ------------------------.........-----.-------------------------------------.--..---...----------------..---------------------------------------------------------------------------------------------------..............----------
(PID.TID 0000.0001) //     14 ----..------------------.........-----.-------------------------------------.--..----....-------------...-----------------------------------------------.......-----..---------------------------------------...-........-----------
(PID.TID 0000.0001) //     13 --....------------------.........-----.----------------------------------------...---------------------..-----------------------------------------------.........-....----------------------------------------..--......------------
(PID.TID 0000.0001) //     12 --....------------------.........-----.------------------------------------------..------------------.......--------------------------------------------............----------------------------------------------......------------
(PID.TID 0000.0001) //     11 ......-----------------..........-----.---------------------------------------...------------------......-----------------------------------------------..........------------------------------------------------......------------
(PID.TID 0000.0001) //     10 .....-------------------........-----------------------------------------------...------------------....------------------------------------------------.........-------------------------------------------------------------------
(PID.TID 0000.0001) //      9 .....-------------------.......----------------------------------------------------------------....---...-----------------------------------------------.......---------------------------------------------------------------------
(PID.TID 0000.0001) //      8 ...---------------------.......-----------------------------------...-....---------------------...----...------------------------------------------------......---------------------------------------------------------------------
(PID.TID 0000.0001) //      7 ..----------------------......------------------------------------........---....--------------............-------------------------------------------------------------------------------------------------------------------------
(PID.TID 0000.0001) //      6 ..-----------------------.....------------------------------------.......-----....---------------.........----------------------------------------..--------------------------------------------------------------------------------
(PID.TID 0000.0001) //      5 -------------------------....-------------------------------------...---------......--------------......----------------------------------------------------------------------------------------------------------------------------
(PID.TID 0000.0001) //      4 ----------------------------------------------------------------------------.........---------..........-------------------------------..--..---------------------------------------------------------------------------------------
(PID.TID 0000.0001) //      3 ----------------------------------------------------------------------------..-.....------..--.............-------------------------------------------------------------------------------------------------------------------------
(PID.TID 0000.0001) //      2 ----------------------------------------------------------------------------..-....-------..............-...------------------------------------------------------------------------------------------------------------------------
(PID.TID 0000.0001) //      1 ----------------------------------------------------------------------------.--....------..................-------------------------------------------------------------------------------------------------------------------------
(PID.TID 0000.0001) //      0 ...---------------------------------.....---------------------------------.........--..--................-------.....------------------------...------.....---------------------------------.....---------------------------------..
(PID.TID 0000.0001) //     -1 ...---------------------------------.....---------------------------------.....-.......-................--------.....------------------------....-----.....---------------------------------.....---------------------------------..
(PID.TID 0000.0001) //     -2 ...---------------------------------.....---------------------------------.....-.......................---------.....------------------------....-----.....---------------------------------.....--------------------------..-----..
(PID.TID 0000.0001) // =======================================================
(PID.TID 0000.0001) // END OF FIELD                                          =
(PID.TID 0000.0001) // =======================================================
(PID.TID 0000.0001) 
(PID.TID 0000.0001) // =======================================================
(PID.TID 0000.0001) // Field hFacS at iteration          1
(PID.TID 0000.0001) // CMIN =          1.000000000000000E+00
(PID.TID 0000.0001) // CMAX =          1.000000000000000E+00
(PID.TID 0000.0001) // CINT =          0.000000000000000E+00
(PID.TID 0000.0001) // SYMBOLS (CMIN->CMAX): -abcdefghijklmnopqrstuvwxyz+
(PID.TID 0000.0001) //                  0.0: .
(PID.TID 0000.0001) // RANGE I (Lo:Hi:Step):(  -2: 195:   1)
(PID.TID 0000.0001) // RANGE J (Lo:Hi:Step):(  35:  -2:  -1)
(PID.TID 0000.0001) // RANGE K (Lo:Hi:Step):(   1:   1:   1)
(PID.TID 0000.0001) // =======================================================
(PID.TID 0000.0001) K =   1
(PID.TID 0000.0001) //                I=7       I=17      I=27      I=31      I=41      I=51      I=61      I=65      I=75      I=85      I=95      I=99      I=109     I=119     I=129     I=133     I=143     I=153     I=163     I=167     I=177     I=187
(PID.TID 0000.0001) // |--J--|**0123456|890123456|890123456|890123450|234567890|234567890|234567890|234567234|678901234|678901234|678901234|678945678|012345678|012345678|012345678|016789012|456789012|456789012|456789012|890123456|890123456|890123456|89012345
(PID.TID 0000.0001) //     35 ...-------------------..-.---................-------..............-..----......-------------.----.......-------......--------------------------------......------------------....----------......--------------------------------...
(PID.TID 0000.0001) //     34 ...-----------------...-..--................-------...............-..----......------------------.......-------......--------------------------------......------------------......--------......--------------------------------...
(PID.TID 0000.0001) //     33 -------------------....-..--................---.---...............-.-----------------------------.......----------------------------------------------------------------------.....-------------------------------------------------
(PID.TID 0000.0001) //     32 -----------------...----.---....---...---.......--................-------------------------------.......----------------------------------------------------------------------......------------------------------------------------
(PID.TID 0000.0001) //     31 -----------------...--------.--...--....--.......................--------------------------------.......------------------------------------------------------------------------......----------------------------------------------
(PID.TID 0000.0001) //     30 -----------------.-...---------....-.....-......................-------------------------..------......-------------------------------------------------------------------------......----------------------------------------------
(PID.TID 0000.0001) //     29 -----------------.....--------.....--....--.....................-------------------------..-------.....-------------------------------------------------------------------------.---------------------------------------------------
(PID.TID 0000.0001) //     28 -----------------....-.-------......--....--.......-............-------------------------..-------.....------------------------------------------------------------------.----------------------------------------------------------
(PID.TID 0000.0001) //     27 -----------------........------.....--....---......--...........----------------------------------.....------------------------------------------------------------------.-------..-------------------------------------------------
(PID.TID 0000.0001) //     26 --------------------.........----...---...---------..-..........------------------------------------...-----------------------------------------------------------------..------......----------------------------------------------
(PID.TID 0000.0001) //     25 --------------------.........--.-....--....--------..-..--.....-------------------------------------...----------------------------------------------------------------...------........--------------------------------------------
(PID.TID 0000.0001) //     24 --------------------.........--.-.....-.....--------.-----....--------------------------.-----------...----------------------------------------------------------------..------...........----..------------------------------------
(PID.TID 0000.0001) //     23 --------------------....--.......-.....-....--------.-------..--------------------------...---------...-----------------------------------------------------------------...---..-------......-.....-------------....----------------
(PID.TID 0000.0001) //     22 ---------------------..---...........-.....---------.------------------------------------...--.-----.....---------------------------------------------------------------........--------.....-.....------------........-------------
(PID.TID 0000.0001) //     21 ---------------..----...--...........-.....----------------------------------------------....-.-----.....-----------------------------------------------------------------.....------------..----..------------........-------------
(PID.TID 0000.0001) //     20 ---------------..----.........-......-.....----------------------------------------------......------.-------------------------------------------------------..------------.-------------------------------.---........-------------
(PID.TID 0000.0001) //     19 ----------------------..............--....----------------------------------..------------.....------.-------------------------------------------------------..--------------------------------------------.---.........------------
(PID.TID 0000.0001) //     18 -----------------------...........----..-------------------------.----------..-------------..--------------------------------------------------------------------------------------------------------------..............-----------
(PID.TID 0000.0001) //     17 -----------------------..--......-----.--------------------------.-----------..-----------------------.-----------------------------------------------------------------------------------------------------.............-----------
(PID.TID 0000.0001) //     16 -----------------------..........-----.--------------------------------------...----..----------------..----------------------------------------------------------------------------------------------------.............-----------
(PID.TID 0000.0001) //     15 ----.-------------------........-----------------------------------------------.----....--------------..------------------------------------------------......------.---------------------------------------.............-----------
(PID.TID 0000.0001) //     14 --...-------------------........-----------------------------------------------..----...--------------..------------------------------------------------........--...----------------------------------------..--.......------------
(PID.TID 0000.0001) //     13 --...-------------------........-----------------------------------------------...-------------------....-.---------------------------------------------.............-----------------------------------------.---.....-------------
(PID.TID 0000.0001) //     12 -....------------------.........----------------------------------------------..-.-----------------......-.---------------------------------------------...........-----------------------------------------------.....-------------
(PID.TID 0000.0001) //     11 .....------------------.........----------------------------------------------...------------------.....------------------------------------------------.........-------------------------------------------------.....-------------
(PID.TID 0000.0001) //     10 ....--------------------.......------------------------------------------------..--------------...--....------------------------------------------------........--------------------------------------------------------------------
(PID.TID 0000.0001) //      9 ....--------------------......------------------------------------..--...----------------------...----..------------------------------------------------......----------------------------------------------------------------------
(PID.TID 0000.0001) //      8 ..----------------------......------------------------------------.......----...---------------...........-----------------------------------------------.....----------------------------------------------------------------------
(PID.TID 0000.0001) //      7 .-----------------------.....-------------------------------------.......----....--------------...........----------------------------------------.---------------------------------------------------------------------------------
(PID.TID 0000.0001) //      6 .------------------------....-------------------------------------......------.....--------------........-----------------------------------------.---------------------------------------------------------------------------------
(PID.TID 0000.0001) //      5 -------------------------...--------------------------------------..--------........----------.........--------------------------------.---.----------------------------------------------------------------------------------------
(PID.TID 0000.0001) //      4 ----------------------------------------------------------------------------........------.---..........-.-----------------------------.---.----------------------------------------------------------------------------------------
(PID.TID 0000.0001) //      3 ----------------------------------------------------------------------------.--....-------..............-..-------------------------------------------------------------------------------------------------------------------------
(PID.TID 0000.0001) //      2 ----------------------------------------------------------------------------.--...-------...............-..-------------------------------------------------------------------------------------------------------------------------
(PID.TID 0000.0001) //      1 ------------------------------------------------------------------------------....---.---...............-.-----------------------------------..-------------------------------------------------------------------------------------
(PID.TID 0000.0001) //      0 ...--------------------------------......--------------------------------.............--................-------......------------------------...-----......--------------------------------......--------------------------------...
(PID.TID 0000.0001) //     -1 ...--------------------------------......--------------------------------......-.......................--------......------------------------...-----......--------------------------------......--------------------------.-----...
(PID.TID 0000.0001) //     -2 ...--------------------------------......--------------------------------......-......................---------......------------------------...-----......--------------------------------......--------------------------.-----...
(PID.TID 0000.0001) // =======================================================
(PID.TID 0000.0001) // END OF FIELD                                          =
(PID.TID 0000.0001) // =======================================================
(PID.TID 0000.0001) 
(PID.TID 0000.0001) %MON fCori_max                    =   1.4535016908525E-04
(PID.TID 0000.0001) %MON fCori_min                    =  -1.4535016908525E-04
(PID.TID 0000.0001) %MON fCori_mean                   =   7.1247823427901E-22
(PID.TID 0000.0001) %MON fCori_sd                     =   8.3972192788621E-05
(PID.TID 0000.0001) %MON fCoriG_max                   =   1.4544410433286E-04
(PID.TID 0000.0001) %MON fCoriG_min                   =  -1.4544410433286E-04
(PID.TID 0000.0001) %MON fCoriG_mean                  =   4.3252746242773E-22
(PID.TID 0000.0001) %MON fCoriG_sd                    =   8.4860812167727E-05
(PID.TID 0000.0001)  PACKAGE_INIT: opening data.pkg
(PID.TID 0000.0001)  OPEN_COPY_DATA_FILE: opening file data.pkg
(PID.TID 0000.0001) // =======================================================
(PID.TID 0000.0001) // Parameter file "data.pkg"
(PID.TID 0000.0001) // =======================================================
(PID.TID 0000.0001) ># Packages
(PID.TID 0000.0001) > &PACKAGES
(PID.TID 0000.0001) > useAIM=.TRUE.
(PID.TID 0000.0001) > useSHAP_FILT=.TRUE.
(PID.TID 0000.0001) >#useAIM=.FALSE.
(PID.TID 0000.0001) > &
(PID.TID 0000.0001) 
(PID.TID 0000.0001)  PACKAGE_INIT: finished reading data.pkg
(PID.TID 0000.0001)  SHAP_FILT_READPARMS: opening data.shap
(PID.TID 0000.0001)  OPEN_COPY_DATA_FILE: opening file data.shap
(PID.TID 0000.0001) // =======================================================
(PID.TID 0000.0001) // Parameter file "data.shap"
(PID.TID 0000.0001) // =======================================================
(PID.TID 0000.0001) ># Shapiro Filter parameters
(PID.TID 0000.0001) > &SHAP_PARM01
(PID.TID 0000.0001) > nShapT=4,
(PID.TID 0000.0001) > nShapUV=4,
(PID.TID 0000.0001) > Shap_funct=2,
(PID.TID 0000.0001) > nShapTrPhys=4,
(PID.TID 0000.0001) > nShapUVPhys=4,
(PID.TID 0000.0001) >#Shap_TrLength=115000.,
(PID.TID 0000.0001) >#Shap_uvLength=110000.,
(PID.TID 0000.0001) >#Shap_Trtau=3600.,
(PID.TID 0000.0001) >#Shap_uvtau=3600.,
(PID.TID 0000.0001) > &
(PID.TID 0000.0001) 
(PID.TID 0000.0001)  SHAP_FILT_READPARMS: finished reading data.shap
 Shap_funct, nShap_Tr,UV _Phys=           2           4           4           4
            4
 Shap_Trtau,Shap_uvtau=   600.0000000000000        600.0000000000000     
(PID.TID 0000.0001) // CG2D normalisation factor =          0.9911960384346747000000000E-05
(PID.TID 0000.0001) 
 ini_cg2d: sumArea,cg2dTolerance =  5.09904363781724E+14  8.42358642268329E-11
(PID.TID 0000.0001) // =======================================================
(PID.TID 0000.0001) // Model configuration
(PID.TID 0000.0001) // =======================================================
(PID.TID 0000.0001) //
(PID.TID 0000.0001) // "Physical" paramters ( PARM01 in namelist )
(PID.TID 0000.0001) //
(PID.TID 0000.0001) tRef =   /* Reference temperature profile ( oC or oK ) */
(PID.TID 0000.0001)                 2.810890000000000E+02,      /* K =  1 */
(PID.TID 0000.0001)                 2.893210000000000E+02,      /* K =  2 */
(PID.TID 0000.0001)                 3.071910000000000E+02,      /* K =  3 */
(PID.TID 0000.0001)                 3.313770000000000E+02,      /* K =  4 */
(PID.TID 0000.0001)                 4.324130000000000E+02       /* K =  5 */
(PID.TID 0000.0001)     ;
(PID.TID 0000.0001) sRef =   /* Reference salinity profile ( ppt ) */
(PID.TID 0000.0001)     5 @  0.000000000000000E+00              /* K =  1:  5 */
(PID.TID 0000.0001)     ;
(PID.TID 0000.0001) viscAh =   /* Lateral eddy viscosity ( m^2/s ) */
(PID.TID 0000.0001)                 0.000000000000000E+00
(PID.TID 0000.0001)     ;
(PID.TID 0000.0001) viscAh =   /* Lateral biharmonic viscosity ( m^4/s ) */
(PID.TID 0000.0001)                 0.000000000000000E+00
(PID.TID 0000.0001)     ;
(PID.TID 0000.0001) no_slip_sides =  /* Viscous BCs: No-slip sides */
(PID.TID 0000.0001)                   F
(PID.TID 0000.0001)     ;
(PID.TID 0000.0001) viscAr =   /* Vertical eddy viscosity ( units of r^2/s ) */
(PID.TID 0000.0001)                 0.000000000000000E+00
(PID.TID 0000.0001)     ;
(PID.TID 0000.0001) diffKhT =   /* Laplacian diffusion of heat laterally ( m^2/s ) */
(PID.TID 0000.0001)                 0.000000000000000E+00
(PID.TID 0000.0001)     ;
(PID.TID 0000.0001) diffK4T =   /* Bihaarmonic diffusion of heat laterally ( m^4/s ) */
(PID.TID 0000.0001)                 0.000000000000000E+00
(PID.TID 0000.0001)     ;
(PID.TID 0000.0001) diffKzT =   /* Laplacian diffusion of heat vertically ( m^2/s ) */
(PID.TID 0000.0001)                 1.234567000000000E+05
(PID.TID 0000.0001)     ;
(PID.TID 0000.0001) diffKrT =   /* Laplacian diffusion of heat vertically ( m^2/s ) */
(PID.TID 0000.0001)                 0.000000000000000E+00
(PID.TID 0000.0001)     ;
(PID.TID 0000.0001) diffKhS =   /* Laplacian diffusion of salt laterally ( m^2/s ) */
(PID.TID 0000.0001)                 0.000000000000000E+00
(PID.TID 0000.0001)     ;
(PID.TID 0000.0001) diffK4S =   /* Bihaarmonic diffusion of salt laterally ( m^4/s ) */
(PID.TID 0000.0001)                 0.000000000000000E+00
(PID.TID 0000.0001)     ;
(PID.TID 0000.0001) diffKzS =   /* Laplacian diffusion of salt vertically ( m^2/s ) */
(PID.TID 0000.0001)                 1.234567000000000E+05
(PID.TID 0000.0001)     ;
(PID.TID 0000.0001) diffKrS =   /* Laplacian diffusion of salt vertically ( m^2/s ) */
(PID.TID 0000.0001)                 0.000000000000000E+00
(PID.TID 0000.0001)     ;
(PID.TID 0000.0001) tAlpha =   /* Linear EOS thermal expansion coefficient ( 1/degree ) */
(PID.TID 0000.0001)                 2.000000000000000E-04
(PID.TID 0000.0001)     ;
(PID.TID 0000.0001) sBeta =   /* Linear EOS haline contraction coefficient ( 1/ppt ) */
(PID.TID 0000.0001)                 7.400000000000001E-04
(PID.TID 0000.0001)     ;
(PID.TID 0000.0001) rhonil =   /* Reference density ( kg/m^3 ) */
(PID.TID 0000.0001)                 1.000000000000000E+00
(PID.TID 0000.0001)     ;
(PID.TID 0000.0001) rhoConst =   /* Reference density ( kg/m^3 ) */
(PID.TID 0000.0001)                 1.000000000000000E+00
(PID.TID 0000.0001)     ;
(PID.TID 0000.0001) gravity =   /* Gravitational acceleration ( m/s^2 ) */
(PID.TID 0000.0001)                 9.810000000000001E+00
[...]
(PID.TID 0000.0001) %MON dynstat_uvel_sd              =   1.0647813267829E-02
(PID.TID 0000.0001) %MON dynstat_vvel_max             =   1.2623422892866E-01
(PID.TID 0000.0001) %MON dynstat_vvel_min             =  -1.7829660715280E-01
(PID.TID 0000.0001) %MON dynstat_vvel_mean            =   1.1116583987755E-03
(PID.TID 0000.0001) %MON dynstat_vvel_sd              =   1.0755918634079E-02
(PID.TID 0000.0001) %MON dynstat_wvel_max             =   9.8984687183960E-03
(PID.TID 0000.0001) %MON dynstat_wvel_min             =  -2.9233444432099E-02
(PID.TID 0000.0001) %MON dynstat_wvel_mean            =   1.4652509698983E-05
(PID.TID 0000.0001) %MON dynstat_wvel_sd              =   9.9214413023965E-04
(PID.TID 0000.0001) %MON dynstat_theta_max            =   4.3266306838504E+02
(PID.TID 0000.0001) %MON dynstat_theta_min            =   2.8076780447389E+02
(PID.TID 0000.0001) %MON dynstat_theta_mean           =   3.2977771826975E+02
(PID.TID 0000.0001) %MON dynstat_theta_sd             =   5.5127346672590E+01
(PID.TID 0000.0001) %MON dynstat_salt_max             =   1.6909558251880E+00
(PID.TID 0000.0001) %MON dynstat_salt_min             =  -6.5484316324189E-02
(PID.TID 0000.0001) %MON dynstat_salt_mean            =   8.7108249839379E-02
(PID.TID 0000.0001) %MON dynstat_salt_sd              =   2.3089631701734E-01
(PID.TID 0000.0001) %MON advcfl_uvel_max              =   2.8117178572129E-04
(PID.TID 0000.0001) %MON advcfl_vvel_max              =   3.5850693016751E-04
(PID.TID 0000.0001) %MON advcfl_wvel_max              =   7.0160266637037E-04
(PID.TID 0000.0001) %MON advcfl_W_hf_max              =   7.0160266637037E-04
(PID.TID 0000.0001) %MON ke_max                       =   1.3539011083498E-02
(PID.TID 0000.0001) %MON ke_mean                      =   1.1449049474919E-04
(PID.TID 0000.0001) // =======================================================
(PID.TID 0000.0001) // End MONITOR dynamic field statistics
(PID.TID 0000.0001) // =======================================================
 cg2d: Sum(rhs),rhsMax =  -8.72334163237731E-10  1.41127029618418E+02
(PID.TID 0000.0001)                    cg2d_init_res =    1.12152810449274E+02
(PID.TID 0000.0001)                       cg2d_iters =    18
(PID.TID 0000.0001)                         cg2d_res =    5.47560254153077E-11
(PID.TID 0000.0001) // =======================================================
(PID.TID 0000.0001) // Begin MONITOR dynamic field statistics
(PID.TID 0000.0001) // =======================================================
(PID.TID 0000.0001) %MON time_tsnumber                =                     9
(PID.TID 0000.0001) %MON time_secondsf                =   5.4000000000000E+03
(PID.TID 0000.0001) %MON time_secondsi                =                  5400
(PID.TID 0000.0001) %MON dynstat_eta_max              =   1.0742496102098E+01
(PID.TID 0000.0001) %MON dynstat_eta_min              =  -3.8647478706785E+01
(PID.TID 0000.0001) %MON dynstat_eta_mean             =  -8.0216368242584E-03
(PID.TID 0000.0001) %MON dynstat_eta_sd               =   3.1115831061974E+00
(PID.TID 0000.0001) %MON dynstat_uvel_max             =   1.5650295492213E-01
(PID.TID 0000.0001) %MON dynstat_uvel_min             =  -1.1327436154937E-01
(PID.TID 0000.0001) %MON dynstat_uvel_mean            =  -8.2896885267576E-04
(PID.TID 0000.0001) %MON dynstat_uvel_sd              =   1.2839714565843E-02
(PID.TID 0000.0001) %MON dynstat_vvel_max             =   1.5250611035711E-01
(PID.TID 0000.0001) %MON dynstat_vvel_min             =  -2.1171403734778E-01
(PID.TID 0000.0001) %MON dynstat_vvel_mean            =   1.4140736383835E-03
(PID.TID 0000.0001) %MON dynstat_vvel_sd              =   1.2908602210243E-02
(PID.TID 0000.0001) %MON dynstat_wvel_max             =   1.1254139851055E-02
(PID.TID 0000.0001) %MON dynstat_wvel_min             =  -3.3517327856841E-02
(PID.TID 0000.0001) %MON dynstat_wvel_mean            =   1.2925015098301E-05
(PID.TID 0000.0001) %MON dynstat_wvel_sd              =   1.1331142483270E-03
(PID.TID 0000.0001) %MON dynstat_theta_max            =   4.3269362874508E+02
(PID.TID 0000.0001) %MON dynstat_theta_min            =   2.8072815229324E+02
(PID.TID 0000.0001) %MON dynstat_theta_mean           =   3.2977808210217E+02
(PID.TID 0000.0001) %MON dynstat_theta_sd             =   5.5131750458440E+01
(PID.TID 0000.0001) %MON dynstat_salt_max             =   1.8883374525915E+00
(PID.TID 0000.0001) %MON dynstat_salt_min             =  -6.9878168413557E-02
(PID.TID 0000.0001) %MON dynstat_salt_mean            =   9.7692299859110E-02
(PID.TID 0000.0001) %MON dynstat_salt_sd              =   2.5853289704043E-01
(PID.TID 0000.0001) %MON advcfl_uvel_max              =   3.3379250099904E-04
(PID.TID 0000.0001) %MON advcfl_vvel_max              =   4.2570047077719E-04
(PID.TID 0000.0001) %MON advcfl_wvel_max              =   8.0441586856418E-04
(PID.TID 0000.0001) %MON advcfl_W_hf_max              =   8.0441586856418E-04
(PID.TID 0000.0001) %MON ke_max                       =   1.8935572372980E-02
(PID.TID 0000.0001) %MON ke_mean                      =   1.6578557948168E-04
(PID.TID 0000.0001) // =======================================================
(PID.TID 0000.0001) // End MONITOR dynamic field statistics
(PID.TID 0000.0001) // =======================================================
 cg2d: Sum(rhs),rhsMax =  -1.18246184371840E-09  1.51427426659861E+02
(PID.TID 0000.0001)                    cg2d_init_res =    1.16640284171308E+02
(PID.TID 0000.0001)                       cg2d_iters =    18
(PID.TID 0000.0001)                         cg2d_res =    5.58404774467515E-11
(PID.TID 0000.0001) // =======================================================
(PID.TID 0000.0001) // Begin MONITOR dynamic field statistics
(PID.TID 0000.0001) // =======================================================
(PID.TID 0000.0001) %MON time_tsnumber                =                    10
(PID.TID 0000.0001) %MON time_secondsf                =   6.0000000000000E+03
(PID.TID 0000.0001) %MON time_secondsi                =                  6000
(PID.TID 0000.0001) %MON dynstat_eta_max              =   1.2362110117006E+01
(PID.TID 0000.0001) %MON dynstat_eta_min              =  -4.2221492767591E+01
(PID.TID 0000.0001) %MON dynstat_eta_mean             =  -1.2276225704385E-02
(PID.TID 0000.0001) %MON dynstat_eta_sd               =   3.5809021670490E+00
(PID.TID 0000.0001) %MON dynstat_uvel_max             =   1.8248682751797E-01
(PID.TID 0000.0001) %MON dynstat_uvel_min             =  -1.3102787890345E-01
(PID.TID 0000.0001) %MON dynstat_uvel_mean            =  -9.6683602487969E-04
(PID.TID 0000.0001) %MON dynstat_uvel_sd              =   1.5177167095032E-02
(PID.TID 0000.0001) %MON dynstat_vvel_max             =   1.8054288369869E-01
(PID.TID 0000.0001) %MON dynstat_vvel_min             =  -2.4817582094192E-01
(PID.TID 0000.0001) %MON dynstat_vvel_mean            =   1.7534138044546E-03
(PID.TID 0000.0001) %MON dynstat_vvel_sd              =   1.5205774691197E-02
(PID.TID 0000.0001) %MON dynstat_wvel_max             =   1.2634244497304E-02
(PID.TID 0000.0001) %MON dynstat_wvel_min             =  -3.7826547721929E-02
(PID.TID 0000.0001) %MON dynstat_wvel_mean            =   1.1069779402285E-05
(PID.TID 0000.0001) %MON dynstat_wvel_sd              =   1.2797745732867E-03
(PID.TID 0000.0001) %MON dynstat_theta_max            =   4.3272500270829E+02
(PID.TID 0000.0001) %MON dynstat_theta_min            =   2.8068860385396E+02
(PID.TID 0000.0001) %MON dynstat_theta_mean           =   3.2977842331581E+02
(PID.TID 0000.0001) %MON dynstat_theta_sd             =   5.5136160331000E+01
(PID.TID 0000.0001) %MON dynstat_salt_max             =   2.0829308324667E+00
(PID.TID 0000.0001) %MON dynstat_salt_min             =  -7.3310120690257E-02
(PID.TID 0000.0001) %MON dynstat_salt_mean            =   1.0818931736996E-01
(PID.TID 0000.0001) %MON dynstat_salt_sd              =   2.8588475050698E-01
(PID.TID 0000.0001) %MON advcfl_uvel_max              =   3.8921140234643E-04
(PID.TID 0000.0001) %MON advcfl_vvel_max              =   4.9901539422699E-04
(PID.TID 0000.0001) %MON advcfl_wvel_max              =   9.0783714532629E-04
(PID.TID 0000.0001) %MON advcfl_W_hf_max              =   9.0783714532629E-04
(PID.TID 0000.0001) %MON ke_max                       =   2.5592545564953E-02
(PID.TID 0000.0001) %MON ke_mean                      =   2.3097032248914E-04
(PID.TID 0000.0001) // =======================================================
(PID.TID 0000.0001) // End MONITOR dynamic field statistics
(PID.TID 0000.0001) // =======================================================
(PID.TID 0000.0001)  Seconds in section "ALL                [THE_MODEL_MAIN]":
(PID.TID 0000.0001)          User time:   13.90999984741211
(PID.TID 0000.0001)        System time:  0.3300000037997961
(PID.TID 0000.0001)    Wall clock time:   14.52359497547150
(PID.TID 0000.0001)         No. starts:           1
(PID.TID 0000.0001)          No. stops:           1
(PID.TID 0000.0001)  Seconds in section "INITIALISE_FIXED   [THE_MODEL_MAIN]":
(PID.TID 0000.0001)          User time:  0.2899999916553497
(PID.TID 0000.0001)        System time:  6.9999996572732925E-002
(PID.TID 0000.0001)    Wall clock time:  0.5873949527740479
(PID.TID 0000.0001)         No. starts:           1
(PID.TID 0000.0001)          No. stops:           1
(PID.TID 0000.0001)  Seconds in section "THE_MAIN_LOOP      [THE_MODEL_MAIN]":
(PID.TID 0000.0001)          User time:   13.55000016093254
(PID.TID 0000.0001)        System time:  0.2099999859929085
(PID.TID 0000.0001)    Wall clock time:   13.82802999019623
(PID.TID 0000.0001)         No. starts:           1
(PID.TID 0000.0001)          No. stops:           1
(PID.TID 0000.0001)  Seconds in section "INITIALISE_VARIA    [THE_MAIN_LOOP]":
(PID.TID 0000.0001)          User time:  9.0000003576278687E-002
(PID.TID 0000.0001)        System time:  5.9999994933605194E-002
(PID.TID 0000.0001)    Wall clock time:  0.1498079299926758
(PID.TID 0000.0001)         No. starts:           1
(PID.TID 0000.0001)          No. stops:           1
(PID.TID 0000.0001)  Seconds in section "WRITE_STATE         [THE_MAIN_LOOP]":
(PID.TID 0000.0001)          User time:  3.0000001192092896E-002
(PID.TID 0000.0001)        System time:  4.0000006556510925E-002
(PID.TID 0000.0001)    Wall clock time:  6.2494039535522461E-002
(PID.TID 0000.0001)         No. starts:           1
(PID.TID 0000.0001)          No. stops:           1
(PID.TID 0000.0001)  Seconds in section "MONITOR             [THE_MAIN_LOOP]":
(PID.TID 0000.0001)          User time:  3.0000001192092896E-002
(PID.TID 0000.0001)        System time:  0.0000000000000000E+000
(PID.TID 0000.0001)    Wall clock time:  3.1020045280456543E-002
(PID.TID 0000.0001)         No. starts:           1
(PID.TID 0000.0001)          No. stops:           1
(PID.TID 0000.0001)  Seconds in section "MAIN LOOP           [THE_MAIN_LOOP]":
(PID.TID 0000.0001)          User time:   13.40000015497208
(PID.TID 0000.0001)        System time:  0.1099999845027924
(PID.TID 0000.0001)    Wall clock time:   13.58395600318909
(PID.TID 0000.0001)         No. starts:           1
(PID.TID 0000.0001)          No. stops:           1
(PID.TID 0000.0001)  Seconds in section "FORWARD_STEP        [THE_MAIN_LOOP]":
(PID.TID 0000.0001)          User time:   13.40000015497208
(PID.TID 0000.0001)        System time:  0.1099999845027924
(PID.TID 0000.0001)    Wall clock time:   13.58233618736267
(PID.TID 0000.0001)         No. starts:          10
(PID.TID 0000.0001)          No. stops:          10
(PID.TID 0000.0001)  Seconds in section "EXTERNAL_FIELDS_LOAD[THE_MAIN_LOOP]":
(PID.TID 0000.0001)          User time:  0.0000000000000000E+000
(PID.TID 0000.0001)        System time:  0.0000000000000000E+000
(PID.TID 0000.0001)    Wall clock time:  5.6454658508300781E-002
(PID.TID 0000.0001)         No. starts:          10
(PID.TID 0000.0001)          No. stops:          10
(PID.TID 0000.0001)  Seconds in section "THERMODYNAMICS      [THE_MAIN_LOOP]":
(PID.TID 0000.0001)          User time:   6.270000517368317
(PID.TID 0000.0001)        System time:  3.9999991655349731E-002
(PID.TID 0000.0001)    Wall clock time:   6.311217904090881
(PID.TID 0000.0001)         No. starts:          10
(PID.TID 0000.0001)          No. stops:          10
(PID.TID 0000.0001)  Seconds in section "AIM_DO_ATMOS_PHYS      [DYNAMICS]":
(PID.TID 0000.0001)          User time:   3.180003434419632
(PID.TID 0000.0001)        System time:  3.9999991655349731E-002
(PID.TID 0000.0001)    Wall clock time:   3.229105114936829
(PID.TID 0000.0001)         No. starts:          60
(PID.TID 0000.0001)          No. stops:          60
(PID.TID 0000.0001)  Seconds in section "DYNAMICS            [THE_MAIN_LOOP]":
(PID.TID 0000.0001)          User time:   2.340000152587891
(PID.TID 0000.0001)        System time:  0.0000000000000000E+000
(PID.TID 0000.0001)    Wall clock time:   2.344038009643555
(PID.TID 0000.0001)         No. starts:          10
(PID.TID 0000.0001)          No. stops:          10
(PID.TID 0000.0001)  Seconds in section "SOLVE_FOR_PRESSURE  [THE_MAIN_LOOP]":
(PID.TID 0000.0001)          User time:  0.8900004625320435
(PID.TID 0000.0001)        System time:  0.0000000000000000E+000
(PID.TID 0000.0001)    Wall clock time:  0.8807959556579590
(PID.TID 0000.0001)         No. starts:          10
(PID.TID 0000.0001)          No. stops:          10
(PID.TID 0000.0001)  Seconds in section "THE_CORRECTION_STEP [THE_MAIN_LOOP]":
(PID.TID 0000.0001)          User time:   3.359998941421509
(PID.TID 0000.0001)        System time:  2.0000010728836060E-002
(PID.TID 0000.0001)    Wall clock time:   3.384076118469238
(PID.TID 0000.0001)         No. starts:          10
(PID.TID 0000.0001)          No. stops:          10
(PID.TID 0000.0001)  Seconds in section "BLOCKING_EXCHANGES  [THE_MAIN_LOOP]":
(PID.TID 0000.0001)          User time:  6.0000658035278320E-002
(PID.TID 0000.0001)        System time:  0.0000000000000000E+000
(PID.TID 0000.0001)    Wall clock time:  6.3284993171691895E-002
(PID.TID 0000.0001)         No. starts:          10
(PID.TID 0000.0001)          No. stops:          10
(PID.TID 0000.0001)  Seconds in section "DO_THE_MODEL_IO     [THE_MAIN_LOOP]":
(PID.TID 0000.0001)          User time:  3.0000448226928711E-002
(PID.TID 0000.0001)        System time:  3.9999991655349731E-002
(PID.TID 0000.0001)    Wall clock time:  6.5722107887268066E-002
(PID.TID 0000.0001)         No. starts:          10
(PID.TID 0000.0001)          No. stops:          10
(PID.TID 0000.0001)  Seconds in section "WRITE_CHECKPOINT    [THE_MAIN_LOOP]":
(PID.TID 0000.0001)          User time:  0.0000000000000000E+000
(PID.TID 0000.0001)        System time:  0.0000000000000000E+000
(PID.TID 0000.0001)    Wall clock time:  1.4971494674682617E-003
(PID.TID 0000.0001)         No. starts:          10
(PID.TID 0000.0001)          No. stops:          10
(PID.TID 0000.0001)  Seconds in section "WRITE_CHECKPOINT   [THE_MODEL_MAIN]":
(PID.TID 0000.0001)          User time:  6.9999694824218750E-002
(PID.TID 0000.0001)        System time:  4.0000021457672119E-002
(PID.TID 0000.0001)    Wall clock time:  0.1075270175933838
(PID.TID 0000.0001)         No. starts:           1
(PID.TID 0000.0001)          No. stops:           1
(PID.TID 0000.0001) // ======================================================
(PID.TID 0000.0001) // Tile <-> Tile communication statistics
(PID.TID 0000.0001) // ======================================================
(PID.TID 0000.0001) // o Tile number: 000001
(PID.TID 0000.0001) //         No. X exchanges =              0
(PID.TID 0000.0001) //            Max. X spins =              0
(PID.TID 0000.0001) //            Min. X spins =     1000000000
(PID.TID 0000.0001) //          Total. X spins =              0
(PID.TID 0000.0001) //            Avg. X spins =       0.00E+00
(PID.TID 0000.0001) //         No. Y exchanges =              0
(PID.TID 0000.0001) //            Max. Y spins =              0
(PID.TID 0000.0001) //            Min. Y spins =     1000000000
(PID.TID 0000.0001) //          Total. Y spins =              0
(PID.TID 0000.0001) //            Avg. Y spins =       0.00E+00
(PID.TID 0000.0001) // o Tile number: 000002
(PID.TID 0000.0001) //         No. X exchanges =              0
(PID.TID 0000.0001) //            Max. X spins =              0
(PID.TID 0000.0001) //            Min. X spins =     1000000000
(PID.TID 0000.0001) //          Total. X spins =              0
(PID.TID 0000.0001) //            Avg. X spins =       0.00E+00
(PID.TID 0000.0001) //         No. Y exchanges =              0
(PID.TID 0000.0001) //            Max. Y spins =              0
(PID.TID 0000.0001) //            Min. Y spins =     1000000000
(PID.TID 0000.0001) //          Total. Y spins =              0
(PID.TID 0000.0001) //            Avg. Y spins =       0.00E+00
(PID.TID 0000.0001) // o Tile number: 000003
(PID.TID 0000.0001) //         No. X exchanges =              0
(PID.TID 0000.0001) //            Max. X spins =              0
(PID.TID 0000.0001) //            Min. X spins =     1000000000
(PID.TID 0000.0001) //          Total. X spins =              0
(PID.TID 0000.0001) //            Avg. X spins =       0.00E+00
(PID.TID 0000.0001) //         No. Y exchanges =              0
(PID.TID 0000.0001) //            Max. Y spins =              0
(PID.TID 0000.0001) //            Min. Y spins =     1000000000
(PID.TID 0000.0001) //          Total. Y spins =              0
(PID.TID 0000.0001) //            Avg. Y spins =       0.00E+00
(PID.TID 0000.0001) // o Tile number: 000004
(PID.TID 0000.0001) //         No. X exchanges =              0
(PID.TID 0000.0001) //            Max. X spins =              0
(PID.TID 0000.0001) //            Min. X spins =     1000000000
(PID.TID 0000.0001) //          Total. X spins =              0
(PID.TID 0000.0001) //            Avg. X spins =       0.00E+00
(PID.TID 0000.0001) //         No. Y exchanges =              0
(PID.TID 0000.0001) //            Max. Y spins =              0
(PID.TID 0000.0001) //            Min. Y spins =     1000000000
(PID.TID 0000.0001) //          Total. Y spins =              0
(PID.TID 0000.0001) //            Avg. Y spins =       0.00E+00
(PID.TID 0000.0001) // o Tile number: 000005
(PID.TID 0000.0001) //         No. X exchanges =              0
(PID.TID 0000.0001) //            Max. X spins =              0
(PID.TID 0000.0001) //            Min. X spins =     1000000000
(PID.TID 0000.0001) //          Total. X spins =              0
(PID.TID 0000.0001) //            Avg. X spins =       0.00E+00
(PID.TID 0000.0001) //         No. Y exchanges =              0
(PID.TID 0000.0001) //            Max. Y spins =              0
(PID.TID 0000.0001) //            Min. Y spins =     1000000000
(PID.TID 0000.0001) //          Total. Y spins =              0
(PID.TID 0000.0001) //            Avg. Y spins =       0.00E+00
(PID.TID 0000.0001) // o Tile number: 000006
(PID.TID 0000.0001) //         No. X exchanges =              0
(PID.TID 0000.0001) //            Max. X spins =              0
(PID.TID 0000.0001) //            Min. X spins =     1000000000
(PID.TID 0000.0001) //          Total. X spins =              0
(PID.TID 0000.0001) //            Avg. X spins =       0.00E+00
(PID.TID 0000.0001) //         No. Y exchanges =              0
(PID.TID 0000.0001) //            Max. Y spins =              0
(PID.TID 0000.0001) //            Min. Y spins =     1000000000
(PID.TID 0000.0001) //          Total. Y spins =              0
(PID.TID 0000.0001) //            Avg. Y spins =       0.00E+00
(PID.TID 0000.0001) // o Thread number: 000001
(PID.TID 0000.0001) //            No. barriers =           5932
(PID.TID 0000.0001) //      Max. barrier spins =              1
(PID.TID 0000.0001) //      Min. barrier spins =              1
(PID.TID 0000.0001) //     Total barrier spins =           5932
(PID.TID 0000.0001) //      Avg. barrier spins =       1.00E+00
