(PID.TID 0000.0001) 
(PID.TID 0000.0001) // ======================================================
(PID.TID 0000.0001) //                      MITgcm UV
(PID.TID 0000.0001) //                      =========
(PID.TID 0000.0001) // ======================================================
(PID.TID 0000.0001) // execution environment starting up...
(PID.TID 0000.0001) 
(PID.TID 0000.0001) // MITgcmUV version:  checkpoint64w
(PID.TID 0000.0001) // Build user:        jmc
(PID.TID 0000.0001) // Build host:        baudelaire
(PID.TID 0000.0001) // Build date:        Sun May 11 21:38:34 EDT 2014
(PID.TID 0000.0001) 
(PID.TID 0000.0001) // =======================================================
(PID.TID 0000.0001) // Execution Environment parameter file "eedata"
(PID.TID 0000.0001) // =======================================================
(PID.TID 0000.0001) ># Example "eedata" file
(PID.TID 0000.0001) ># Lines beginning "#" are comments
(PID.TID 0000.0001) ># nTx - No. threads per process in X
(PID.TID 0000.0001) ># nTy - No. threads per process in Y
(PID.TID 0000.0001) > &EEPARMS
(PID.TID 0000.0001) > useCubedSphereExchange=.TRUE.,
(PID.TID 0000.0001) ># Activate one line below to support 2, 3 or 6 way multi-threading
(PID.TID 0000.0001) > nTx=1,
(PID.TID 0000.0001) >#nTx=2,
(PID.TID 0000.0001) >#nTx=3,
(PID.TID 0000.0001) >#nTx=6,
(PID.TID 0000.0001) > /
(PID.TID 0000.0001) ># Note: Some systems use & as the
(PID.TID 0000.0001) ># namelist terminator. Other systems
(PID.TID 0000.0001) ># use a / character (as shown here).
(PID.TID 0000.0001) 
(PID.TID 0000.0001) // =======================================================
(PID.TID 0000.0001) // Computational Grid Specification ( see files "SIZE.h" )
(PID.TID 0000.0001) //                                  ( and "eedata"       )
(PID.TID 0000.0001) // =======================================================
(PID.TID 0000.0001)      nPx =    1 ; /* No. processes in X */
(PID.TID 0000.0001)      nPy =    1 ; /* No. processes in Y */
(PID.TID 0000.0001)      nSx =    6 ; /* No. tiles in X per process */
(PID.TID 0000.0001)      nSy =    1 ; /* No. tiles in Y per process */
(PID.TID 0000.0001)      sNx =   32 ; /* Tile size in X */
(PID.TID 0000.0001)      sNy =   32 ; /* Tile size in Y */
(PID.TID 0000.0001)      OLx =    2 ; /* Tile overlap distance in X */
(PID.TID 0000.0001)      OLy =    2 ; /* Tile overlap distance in Y */
(PID.TID 0000.0001)      nTx =    1 ; /* No. threads in X per process */
(PID.TID 0000.0001)      nTy =    1 ; /* No. threads in Y per process */
(PID.TID 0000.0001)       Nr =    5 ; /* No. levels in the vertical   */
(PID.TID 0000.0001)       Nx =  192 ; /* Total domain size in X ( = nPx*nSx*sNx ) */
(PID.TID 0000.0001)       Ny =   32 ; /* Total domain size in Y ( = nPy*nSy*sNy ) */
(PID.TID 0000.0001)   nTiles =    6 ; /* Total no. tiles per process ( = nSx*nSy ) */
(PID.TID 0000.0001)   nProcs =    1 ; /* Total no. processes ( = nPx*nPy ) */
(PID.TID 0000.0001) nThreads =    1 ; /* Total no. threads per process ( = nTx*nTy ) */
(PID.TID 0000.0001) usingMPI =    F ; /* Flag used to control whether MPI is in use */
(PID.TID 0000.0001)                   /*  note: To execute a program with MPI calls */
(PID.TID 0000.0001)                   /*  it must be launched appropriately e.g     */
(PID.TID 0000.0001)                   /*  "mpirun -np 64 ......"                    */
(PID.TID 0000.0001) useCoupler=    F ;/* Flag used to control communications with   */
(PID.TID 0000.0001)                   /*  other model components, through a coupler */
(PID.TID 0000.0001) debugMode =    F ; /* print debug msg. (sequence of S/R calls)  */
(PID.TID 0000.0001) printMapIncludesZeros=    F ; /* print zeros in Std.Output maps */
(PID.TID 0000.0001) maxLengthPrt1D=   65 /* maxLength of 1D array printed to StdOut */
(PID.TID 0000.0001) 
(PID.TID 0000.0001) // ======================================================
(PID.TID 0000.0001) // Mapping of tiles to threads
(PID.TID 0000.0001) // ======================================================
(PID.TID 0000.0001) // -o- Thread   1, tiles (   1:   6,   1:   1)
(PID.TID 0000.0001) 
(PID.TID 0000.0001) W2_READPARMS: file data.exch2 not found
(PID.TID 0000.0001) => use W2_EXCH2 default: regular 6-facets Cube
(PID.TID 0000.0001) W2_useE2ioLayOut=    T ;/* T: use Exch2 glob IO map; F: use model default */
(PID.TID 0000.0001) W2_mapIO        =  -1 ; /* select option for Exch2 global-IO map */
(PID.TID 0000.0001) W2_printMsg     =  -1 ; /* select option for printing information */
(PID.TID 0000.0001) ===== Start setting W2 TOPOLOGY:
(PID.TID 0000.0001)  write to log-file: w2_tile_topology.0000.log
(PID.TID 0000.0001) =====       setting W2 TOPOLOGY: Done
(PID.TID 0000.0001) 
(PID.TID 0000.0001)  INI_PARMS: opening model parameter file "data"
(PID.TID 0000.0001)  OPEN_COPY_DATA_FILE: opening file data
(PID.TID 0000.0001) // =======================================================
(PID.TID 0000.0001) // Parameter file "data"
(PID.TID 0000.0001) // =======================================================
(PID.TID 0000.0001) ># ====================
(PID.TID 0000.0001) ># | Model parameters |
(PID.TID 0000.0001) ># ====================
(PID.TID 0000.0001) >#
(PID.TID 0000.0001) ># Continuous equation parameters
(PID.TID 0000.0001) > &PARM01
(PID.TID 0000.0001) > tRef=289.6, 298.1, 314.5, 335.8, 437.4,
(PID.TID 0000.0001) > sRef=5*0.,
(PID.TID 0000.0001) > no_slip_sides=.FALSE.,
(PID.TID 0000.0001) > no_slip_bottom=.FALSE.,
(PID.TID 0000.0001) > buoyancyRelation='ATMOSPHERIC',
(PID.TID 0000.0001) > eosType='IDEALG',
(PID.TID 0000.0001) > atm_Rq=0.6078E-3,
(PID.TID 0000.0001) > Integr_GeoPot=2,
(PID.TID 0000.0001) > selectFindRoSurf=1,
(PID.TID 0000.0001) > gravity=9.81,
(PID.TID 0000.0001) > rhoConstFresh=1000.,
(PID.TID 0000.0001) > implicitFreeSurface=.TRUE.,
(PID.TID 0000.0001) > exactConserv=.TRUE.,
(PID.TID 0000.0001) > select_rStar=2,
(PID.TID 0000.0001) > nonlinFreeSurf=4,
(PID.TID 0000.0001) > hFacInf=0.2,
(PID.TID 0000.0001) > hFacSup=2.0,
(PID.TID 0000.0001) > uniformLin_PhiSurf=.FALSE.,
(PID.TID 0000.0001) > hFacMin=0.2,
(PID.TID 0000.0001) > saltAdvScheme=3,
(PID.TID 0000.0001) > vectorInvariantMomentum=.TRUE.,
(PID.TID 0000.0001) > useJamartWetPoints=.TRUE.,
(PID.TID 0000.0001) > staggerTimeStep=.TRUE.,
(PID.TID 0000.0001) > readBinaryPrec=64,
(PID.TID 0000.0001) > writeBinaryPrec=64,
(PID.TID 0000.0001) > /
(PID.TID 0000.0001) >
(PID.TID 0000.0001) ># Elliptic solver parameters
(PID.TID 0000.0001) > &PARM02
(PID.TID 0000.0001) > cg2dMaxIters=200,
(PID.TID 0000.0001) >#cg2dTargetResidual=1.E-12,
(PID.TID 0000.0001) > cg2dTargetResWunit=1.E-17,
(PID.TID 0000.0001) > /
(PID.TID 0000.0001) >
(PID.TID 0000.0001) ># Time stepping parameters
(PID.TID 0000.0001) > &PARM03
(PID.TID 0000.0001) > nIter0=69120,
(PID.TID 0000.0001) > nTimeSteps=10,
(PID.TID 0000.0001) ># 1yr, 10yr:
(PID.TID 0000.0001) >#endTime=31104000.,
(PID.TID 0000.0001) >#endTime=311040000.,
(PID.TID 0000.0001) > deltaT=450.0,
(PID.TID 0000.0001) > abEps=0.1,
(PID.TID 0000.0001) > forcing_In_AB=.FALSE.,
(PID.TID 0000.0001) > cAdjFreq=0.,
(PID.TID 0000.0001) > pChkptFreq=2592000.,
(PID.TID 0000.0001) > taveFreq=2592000.,
(PID.TID 0000.0001) > dumpFreq=7776000.,
(PID.TID 0000.0001) > monitorFreq=86400.,
(PID.TID 0000.0001) > monitorFreq=1.,
(PID.TID 0000.0001) > /
(PID.TID 0000.0001) >
(PID.TID 0000.0001) ># Gridding parameters
(PID.TID 0000.0001) > &PARM04
(PID.TID 0000.0001) > usingCurvilinearGrid=.TRUE.,
(PID.TID 0000.0001) > radius_fromHorizGrid=6370.E3,
(PID.TID 0000.0001) > delR=100.E2, 250.E2, 300.E2, 200.E2, 150.E2,
(PID.TID 0000.0001) > Ro_SeaLevel=1.E5,
(PID.TID 0000.0001) > /
(PID.TID 0000.0001) >
(PID.TID 0000.0001) ># Input datasets
(PID.TID 0000.0001) > &PARM05
(PID.TID 0000.0001) > topoFile='topo.2f2_FM.bin',
(PID.TID 0000.0001) > /
(PID.TID 0000.0001) 
(PID.TID 0000.0001)  INI_PARMS ; starts to read PARM01
(PID.TID 0000.0001)  INI_PARMS ; read PARM01 : OK
(PID.TID 0000.0001)  INI_PARMS ; starts to read PARM02
(PID.TID 0000.0001)  INI_PARMS ; read PARM02 : OK
(PID.TID 0000.0001)  INI_PARMS ; starts to read PARM03
(PID.TID 0000.0001)  INI_PARMS ; read PARM03 : OK
(PID.TID 0000.0001)  INI_PARMS ; starts to read PARM04
(PID.TID 0000.0001)  INI_PARMS ; read PARM04 : OK
(PID.TID 0000.0001)  INI_PARMS ; starts to read PARM05
(PID.TID 0000.0001)  INI_PARMS ; read PARM05 : OK
(PID.TID 0000.0001)  INI_PARMS: finished reading file "data"
(PID.TID 0000.0001)  PACKAGES_BOOT: opening data.pkg
(PID.TID 0000.0001)  OPEN_COPY_DATA_FILE: opening file data.pkg
(PID.TID 0000.0001) // =======================================================
(PID.TID 0000.0001) // Parameter file "data.pkg"
(PID.TID 0000.0001) // =======================================================
(PID.TID 0000.0001) ># Packages
(PID.TID 0000.0001) >#     useAIM  :: use Atmospheric Intermediate complexity Model
(PID.TID 0000.0001) >#     useLand :: use (simple) Land package to compute surf. BC over land
(PID.TID 0000.0001) > &PACKAGES
(PID.TID 0000.0001) > useAIM=.TRUE.,
(PID.TID 0000.0001) > useLand=.TRUE.,
(PID.TID 0000.0001) > useSHAP_FILT=.TRUE.,
(PID.TID 0000.0001) >#useDiagnostics=.TRUE.,
(PID.TID 0000.0001) >#useMNC=.TRUE.,
(PID.TID 0000.0001) > /
(PID.TID 0000.0001) 
(PID.TID 0000.0001)  PACKAGES_BOOT: finished reading data.pkg
(PID.TID 0000.0001)  PACKAGES_BOOT: On/Off package Summary
 --------  pkgs with a standard "usePKG" On/Off switch in "data.pkg":  --------
 pkg/shap_filt            compiled   and   used ( useSHAP_FILT             = T )
 pkg/thsice               compiled but not used ( useThSIce                = F )
 pkg/land                 compiled   and   used ( useLand                  = T )
 pkg/aim_v23              compiled   and   used ( useAIM                   = T )
 pkg/diagnostics          compiled but not used ( useDiagnostics           = F )
 pkg/mnc                  compiled but not used ( useMNC                   = F )
 -------- pkgs without standard "usePKG" On/Off switch in "data.pkg":  --------
 pkg/generic_advdiff      compiled   and   used ( useGAD                   = T )
 pkg/mom_common           compiled   and   used ( momStepping              = T )
 pkg/mom_vecinv           compiled   and   used ( +vectorInvariantMomentum = T )
 pkg/monitor              compiled   and   used ( monitorFreq > 0.         = T )
 pkg/timeave              compiled   and   used ( taveFreq > 0.            = T )
 pkg/debug                compiled but not used ( debugMode                = F )
 pkg/exch2                compiled   and   used
 pkg/rw                   compiled   and   used
 pkg/mdsio                compiled   and   used
 pkg/atm_common           compiled   ( used ? )
(PID.TID 0000.0001)  PACKAGES_BOOT: End of package Summary
(PID.TID 0000.0001) 
(PID.TID 0000.0001)  SHAP_FILT_READPARMS: opening data.shap
(PID.TID 0000.0001)  OPEN_COPY_DATA_FILE: opening file data.shap
(PID.TID 0000.0001) // =======================================================
(PID.TID 0000.0001) // Parameter file "data.shap"
(PID.TID 0000.0001) // =======================================================
(PID.TID 0000.0001) ># Shapiro Filter parameters
(PID.TID 0000.0001) > &SHAP_PARM01
(PID.TID 0000.0001) > shap_filt_uvStar=.FALSE.,
(PID.TID 0000.0001) > shap_filt_TrStagg=.TRUE.,
(PID.TID 0000.0001) > Shap_funct=2,
(PID.TID 0000.0001) > nShapT=4,
(PID.TID 0000.0001) > nShapUV=4,
(PID.TID 0000.0001) > nShapTrPhys=0,
(PID.TID 0000.0001) > nShapUVPhys=0,
(PID.TID 0000.0001) >#Shap_TrLength=140000.,
(PID.TID 0000.0001) >#Shap_uvLength=140000.,
(PID.TID 0000.0001) > Shap_Trtau=5400.,
(PID.TID 0000.0001) > Shap_uvtau=1800.,
(PID.TID 0000.0001) >#Shap_diagFreq=2592000.,
(PID.TID 0000.0001) > /
(PID.TID 0000.0001) 
(PID.TID 0000.0001)  SHAP_FILT_READPARMS: finished reading data.shap
(PID.TID 0000.0001) Shap_funct =   /* select Shapiro filter function */
(PID.TID 0000.0001)                       2
(PID.TID 0000.0001)     ;
(PID.TID 0000.0001) nShapT =   /* power of Shapiro filter for Temperat */
(PID.TID 0000.0001)                       4
(PID.TID 0000.0001)     ;
(PID.TID 0000.0001) nShapS =   /* power of Shapiro filter for Salinity */
(PID.TID 0000.0001)                       4
(PID.TID 0000.0001)     ;
(PID.TID 0000.0001) nShapUV =   /* power of Shapiro filter for momentum */
(PID.TID 0000.0001)                       4
(PID.TID 0000.0001)     ;
(PID.TID 0000.0001) shap_filt_uvStar = /* apply filter before Press. Solver */
(PID.TID 0000.0001)                   F
(PID.TID 0000.0001)     ;
(PID.TID 0000.0001) shap_filt_TrStagg = /* filter T,S before calc PhiHyd (staggerTimeStep) */
(PID.TID 0000.0001)                   T
(PID.TID 0000.0001)     ;
(PID.TID 0000.0001) Shap_alwaysExchUV = /* always exch(U,V)    nShapUV times*/
(PID.TID 0000.0001)                   F
(PID.TID 0000.0001)     ;
(PID.TID 0000.0001) Shap_alwaysExchTr = /* always exch(Tracer) nShapTr times*/
(PID.TID 0000.0001)                   F
(PID.TID 0000.0001)     ;
(PID.TID 0000.0001) nShapTrPhys =   /* power of physical-space filter (Tracer) */
(PID.TID 0000.0001)                       0
(PID.TID 0000.0001)     ;
(PID.TID 0000.0001) nShapUVPhys =   /* power of physical-space filter (Momentum) */
(PID.TID 0000.0001)                       0
(PID.TID 0000.0001)     ;
(PID.TID 0000.0001) Shap_Trtau =   /* time scale of Shapiro filter (Tracer) */
(PID.TID 0000.0001)                 5.400000000000000E+03
(PID.TID 0000.0001)     ;
(PID.TID 0000.0001) Shap_TrLength =   /* Length scale of Shapiro filter (Tracer) */
(PID.TID 0000.0001)                 0.000000000000000E+00
(PID.TID 0000.0001)     ;
(PID.TID 0000.0001) Shap_uvtau =   /* time scale of Shapiro filter (Momentum) */
(PID.TID 0000.0001)                 1.800000000000000E+03
(PID.TID 0000.0001)     ;
(PID.TID 0000.0001) Shap_uvLength =   /* Length scale of Shapiro filter (Momentum) */
(PID.TID 0000.0001)                 0.000000000000000E+00
(PID.TID 0000.0001)     ;
(PID.TID 0000.0001) Shap_noSlip =  /* No-slip parameter (0=Free-slip ; 1=No-slip)*/
(PID.TID 0000.0001)                 0.000000000000000E+00
(PID.TID 0000.0001)     ;
(PID.TID 0000.0001) Shap_diagFreq =   /* Frequency^-1 for diagnostic output (s)*/
(PID.TID 0000.0001)                 0.000000000000000E+00
(PID.TID 0000.0001)     ;
(PID.TID 0000.0001) SET_PARMS: done
(PID.TID 0000.0001) Enter INI_VERTICAL_GRID: setInterFDr=    T ; setCenterDr=    F
(PID.TID 0000.0001) tile:   1 ; Read from file tile001.mitgrid
(PID.TID 0000.0001)   => xC yC dxF dyF rA xG yG dxV dyU rAz dxC dyC rAw rAs dxG dyG
(PID.TID 0000.0001) tile:   2 ; Read from file tile002.mitgrid
(PID.TID 0000.0001)   => xC yC dxF dyF rA xG yG dxV dyU rAz dxC dyC rAw rAs dxG dyG
(PID.TID 0000.0001) tile:   3 ; Read from file tile003.mitgrid
(PID.TID 0000.0001)   => xC yC dxF dyF rA xG yG dxV dyU rAz dxC dyC rAw rAs dxG dyG
(PID.TID 0000.0001) tile:   4 ; Read from file tile004.mitgrid
(PID.TID 0000.0001)   => xC yC dxF dyF rA xG yG dxV dyU rAz dxC dyC rAw rAs dxG dyG
(PID.TID 0000.0001) tile:   5 ; Read from file tile005.mitgrid
(PID.TID 0000.0001)   => xC yC dxF dyF rA xG yG dxV dyU rAz dxC dyC rAw rAs dxG dyG
(PID.TID 0000.0001) tile:   6 ; Read from file tile006.mitgrid
(PID.TID 0000.0001)   => xC yC dxF dyF rA xG yG dxV dyU rAz dxC dyC rAw rAs dxG dyG
(PID.TID 0000.0001) %MON XC_max                       =   1.7854351589505E+02
(PID.TID 0000.0001) %MON XC_min                       =  -1.7854351589505E+02
(PID.TID 0000.0001) %MON XC_mean                      =  -4.6999441375798E-15
(PID.TID 0000.0001) %MON XC_sd                        =   1.0355545336287E+02
(PID.TID 0000.0001) %MON XG_max                       =   1.8000000000000E+02
(PID.TID 0000.0001) %MON XG_min                       =  -1.7708797161002E+02
(PID.TID 0000.0001) %MON XG_mean                      =   1.8603515625000E+00
(PID.TID 0000.0001) %MON XG_sd                        =   1.0357130300504E+02
(PID.TID 0000.0001) %MON DXC_max                      =   3.2375185836900E+05
(PID.TID 0000.0001) %MON DXC_min                      =   1.1142031410131E+05
(PID.TID 0000.0001) %MON DXC_mean                     =   2.8605689051214E+05
(PID.TID 0000.0001) %MON DXC_sd                       =   3.4042087138252E+04
(PID.TID 0000.0001) %MON DXF_max                      =   3.2369947500827E+05
(PID.TID 0000.0001) %MON DXF_min                      =   1.2020820513318E+05
(PID.TID 0000.0001) %MON DXF_mean                     =   2.8605437324820E+05
(PID.TID 0000.0001) %MON DXF_sd                       =   3.4050524252539E+04
(PID.TID 0000.0001) %MON DXG_max                      =   3.2375195872773E+05
(PID.TID 0000.0001) %MON DXG_min                      =   1.0098378008791E+05
(PID.TID 0000.0001) %MON DXG_mean                     =   2.8603818508931E+05
(PID.TID 0000.0001) %MON DXG_sd                       =   3.4140406908005E+04
(PID.TID 0000.0001) %MON DXV_max                      =   3.2380418162750E+05
(PID.TID 0000.0001) %MON DXV_min                      =   8.0152299824136E+04
(PID.TID 0000.0001) %MON DXV_mean                     =   2.8603970633619E+05
(PID.TID 0000.0001) %MON DXV_sd                       =   3.4145142117723E+04
(PID.TID 0000.0001) %MON YC_max                       =   8.7940663871962E+01
(PID.TID 0000.0001) %MON YC_min                       =  -8.7940663871962E+01
(PID.TID 0000.0001) %MON YC_mean                      =   0.0000000000000E+00
(PID.TID 0000.0001) %MON YC_sd                        =   3.8676242969072E+01
(PID.TID 0000.0001) %MON YG_max                       =   9.0000000000000E+01
(PID.TID 0000.0001) %MON YG_min                       =  -9.0000000000000E+01
(PID.TID 0000.0001) %MON YG_mean                      =  -1.1842378929335E-15
(PID.TID 0000.0001) %MON YG_sd                        =   3.8676895860710E+01
(PID.TID 0000.0001) %MON DYC_max                      =   3.2375185836900E+05
(PID.TID 0000.0001) %MON DYC_min                      =   1.1142031410131E+05
(PID.TID 0000.0001) %MON DYC_mean                     =   2.8605689051214E+05
(PID.TID 0000.0001) %MON DYC_sd                       =   3.4042087138252E+04
(PID.TID 0000.0001) %MON DYF_max                      =   3.2369947500827E+05
(PID.TID 0000.0001) %MON DYF_min                      =   1.2020820513318E+05
(PID.TID 0000.0001) %MON DYF_mean                     =   2.8605437324820E+05
(PID.TID 0000.0001) %MON DYF_sd                       =   3.4050524252539E+04
(PID.TID 0000.0001) %MON DYG_max                      =   3.2375195872773E+05
(PID.TID 0000.0001) %MON DYG_min                      =   1.0098378008791E+05
(PID.TID 0000.0001) %MON DYG_mean                     =   2.8603818508931E+05
(PID.TID 0000.0001) %MON DYG_sd                       =   3.4140406908005E+04
(PID.TID 0000.0001) %MON DYU_max                      =   3.2380418162750E+05
(PID.TID 0000.0001) %MON DYU_min                      =   8.0152299824136E+04
(PID.TID 0000.0001) %MON DYU_mean                     =   2.8603970633619E+05
(PID.TID 0000.0001) %MON DYU_sd                       =   3.4145142117723E+04
(PID.TID 0000.0001) %MON RA_max                       =   1.0479260248419E+11
(PID.TID 0000.0001) %MON RA_min                       =   1.4019007022556E+10
(PID.TID 0000.0001) %MON RA_mean                      =   8.2992246709265E+10
(PID.TID 0000.0001) %MON RA_sd                        =   1.7509089299457E+10
(PID.TID 0000.0001) %MON RAW_max                      =   1.0480965274559E+11
(PID.TID 0000.0001) %MON RAW_min                      =   1.2166903467143E+10
(PID.TID 0000.0001) %MON RAW_mean                     =   8.2992246709235E+10
(PID.TID 0000.0001) %MON RAW_sd                       =   1.7481917919656E+10
(PID.TID 0000.0001) %MON RAS_max                      =   1.0480965274559E+11
(PID.TID 0000.0001) %MON RAS_min                      =   1.2166903467143E+10
(PID.TID 0000.0001) %MON RAS_mean                     =   8.2992246709235E+10
(PID.TID 0000.0001) %MON RAS_sd                       =   1.7481917919656E+10
(PID.TID 0000.0001) %MON RAZ_max                      =   1.0484349334619E+11
(PID.TID 0000.0001) %MON RAZ_min                      =   8.8317900612505E+09
(PID.TID 0000.0001) %MON RAZ_mean                     =   8.2992246709235E+10
(PID.TID 0000.0001) %MON RAZ_sd                       =   1.7482297311044E+10
(PID.TID 0000.0001) %MON AngleCS_max                  =   9.9999994756719E-01
(PID.TID 0000.0001) %MON AngleCS_min                  =  -9.9968286884824E-01
(PID.TID 0000.0001) %MON AngleCS_mean                 =   3.3078922539000E-01
(PID.TID 0000.0001) %MON AngleCS_sd                   =   6.2496278958502E-01
(PID.TID 0000.0001) %MON AngleSN_max                  =   9.9968286884824E-01
(PID.TID 0000.0001) %MON AngleSN_min                  =  -9.9999994756719E-01
(PID.TID 0000.0001) %MON AngleSN_mean                 =  -3.3078922539000E-01
(PID.TID 0000.0001) %MON AngleSN_sd                   =   6.2496278958502E-01
(PID.TID 0000.0001) 
(PID.TID 0000.0001) SET_REF_STATE: PhiRef/g [m] at level Center (integer)
(PID.TID 0000.0001)                      and at level Interface (half-int.) :
(PID.TID 0000.0001)  K=  0.5  ;  r=       100000.0  ;  phiRef/g=        0.000
(PID.TID 0000.0001)  K=  1.0  ;  r=        95000.0  ;  phiRef/g=      431.199
(PID.TID 0000.0001)  K=  1.5  ;  r=        90000.0  ;  phiRef/g=     1256.487
(PID.TID 0000.0001)  K=  2.0  ;  r=        77500.0  ;  phiRef/g=     2081.775
(PID.TID 0000.0001)  K=  2.5  ;  r=        65000.0  ;  phiRef/g=     3703.426
(PID.TID 0000.0001)  K=  3.0  ;  r=        50000.0  ;  phiRef/g=     5325.077
(PID.TID 0000.0001)  K=  3.5  ;  r=        35000.0  ;  phiRef/g=     7509.251
(PID.TID 0000.0001)  K=  4.0  ;  r=        25000.0  ;  phiRef/g=     9693.426
(PID.TID 0000.0001)  K=  4.5  ;  r=        15000.0  ;  phiRef/g=    12596.158
(PID.TID 0000.0001)  K=  5.0  ;  r=         7500.0  ;  phiRef/g=    15498.890
(PID.TID 0000.0001)  K=  5.5  ;  r=            0.0  ;  phiRef/g=    29638.981
(PID.TID 0000.0001)  MDS_READ_FIELD: opening global file: topo.2f2_FM.bin
(PID.TID 0000.0001) // =======================================================
(PID.TID 0000.0001) // Field Model R_low (ini_masks_etc)
(PID.TID 0000.0001) // CMIN =          1.000000000000000E+32
(PID.TID 0000.0001) // CMAX =         -1.000000000000000E+32
(PID.TID 0000.0001) // CINT =          0.000000000000000E+00
(PID.TID 0000.0001) // SYMBOLS (CMIN->CMAX): -abcdefghijklmnopqrstuvwxyz+
(PID.TID 0000.0001) //                  0.0: .
(PID.TID 0000.0001) // RANGE I (Lo:Hi:Step):(    -1:   194:     1)
(PID.TID 0000.0001) // RANGE J (Lo:Hi:Step):(    34:    -1:    -1)
(PID.TID 0000.0001) // RANGE K (Lo:Hi:Step):(   1:   1:   1)
(PID.TID 0000.0001) // =======================================================
(PID.TID 0000.0001) // =======================================================
(PID.TID 0000.0001) // END OF FIELD                                          =
(PID.TID 0000.0001) // =======================================================
(PID.TID 0000.0001) 
(PID.TID 0000.0001) // =======================================================
(PID.TID 0000.0001) // Field Model Ro_surf (ini_masks_etc)
(PID.TID 0000.0001) // CMIN =          4.905667583685931E+04
(PID.TID 0000.0001) // CMAX =          1.000000000000000E+05
(PID.TID 0000.0001) // CINT =          1.886789783820026E+03
(PID.TID 0000.0001) // SYMBOLS (CMIN->CMAX): -abcdefghijklmnopqrstuvwxyz+
(PID.TID 0000.0001) //                  0.0: .
(PID.TID 0000.0001) // RANGE I (Lo:Hi:Step):(    -1:   194:     1)
(PID.TID 0000.0001) // RANGE J (Lo:Hi:Step):(    34:    -1:    -1)
(PID.TID 0000.0001) // RANGE K (Lo:Hi:Step):(   1:   1:   1)
(PID.TID 0000.0001) // =======================================================
(PID.TID 0000.0001) K =   1
(PID.TID 0000.0001) //                I=8       I=18      I=28      I=34      I=44      I=54      I=64      I=70      I=80      I=90      I=96      I=106     I=116     I=126     I=132     I=142     I=152     I=162     I=168     I=178     I=188
(PID.TID 0000.0001) // |--J--|101234567|901234567|901234567|901234123|567890123|567890123|567890123|563456789|123456789|123456789|123456785|789012345|789012345|789012345|789078901|345678901|345678901|345678901|901234567|901234567|901234567|901234
(PID.TID 0000.0001) //     34 +++++++++++++++++zzxwwwwwy+++vnmnounnounny+zzzzzxxwwrnmmmqsuvvxxwy+++y+++++++++++++++zxxyzyxwtmlnnoy+++++++++++++++++++++++++++++++++++++++++++++++++++++++++++++++yxxwwxyy+++++++++++++++++++++++++++++++++++++++++++++
(PID.TID 0000.0001) //     33 +++++++++++++++++zwttvwwwyyywqstuuuouuuooy+yyzzyxwwqoomlmqtvutwyyy+++zzy++++++++++++zxxxyyyxwunmnopx+++++++++++++++++++++++++++++++++++++++++++++++++++++++++++++++zyxwwwwy+++++++++++++++++++++++++++++++++++++++++++++
(PID.TID 0000.0001) //     32 ++++++++++++++++zxwyyyywwyxsrtwxyxvoyxvonrywwzywommlmpppqtttsuyzzyy+yyyy++++++++++++yxxyyxxxxvqmnpqw+++++++++++++++++++++++++++++++++++++++++++++++++++++++++++++++zyxwwwwwy++++++++++++++++++++++++++++++++++++++++++++
(PID.TID 0000.0001) //     31 +++++++++++++++zwvy+++yyyyyxywxxyywqyywqnotsswwphglqttrnnqssswz++zy++yz++++++++++++zxxxyyxxyxwuporty+++++++++++++++++++++++++++++++++++++++++++++++++++++++++++++++zyyxwwwwwyy++++++++++++++++++++++++++++++++++++++++++
(PID.TID 0000.0001) //     30 ++++++++++++++++wy+++++++++++ywwxzyuxzyumnstsspmfdhmlhgfekosuxz++++++++++++++++++++zxxxyzyyyxwwsptx+++++++++++++++++++++++++++++++++++++++++++++++++++++++++++++zzzzyyxxwxxwwyz+++++++++++++++++++++++++++++++++++++++++
(PID.TID 0000.0001) //     29 ++++++++++++++++yywwxz+++++++ywwxyzxxyzxrnosspllkeabbaabdhmsvyzz++++++++++++++++++zxwwxzzzyyxxwtpsx+++++++++++++++++++++++++++++++++++++++++++++++++++++++++++++yyzzyxxxxxxxxxz+++++++++++++++++++++++++++++++++++++++++
(PID.TID 0000.0001) //     28 +++++++++++++++xsvwxxxyzzzzzywwwwxyzwxyzypnorqnrwnc--aaabelsvxyxz+++++++++++++++++zxxxxz++zyxxwvprx++++++++++++++++++++++++++++++++++++++++++++++++++++++++++++zyyzzyyxxyyyyyyzz++++++++++++++++++++++++++++++++++++++++
(PID.TID 0000.0001) //     27 ++++++++++++++yvvwxxxxxxzzzyxwwvvwxyvwxyzyuutrrwzwkdabccbenvwxxwy++++++++++++++++++zxxyz++zyxxxwstx++++++++++++++++++++++++++++++++++++++++++++++++++++++++++++ywyz+zyxxyzz++zzz++++++++++++++++++++++++++++++++++++++++
(PID.TID 0000.0001) //     26 +++++++++++++zyxxyxwwwwxyyxxyxyyvwwxvwwxzzy+yyyyyyxvnmmmhhnuwxxyy++++++++++++++++++++zyy++zyxxxwssy+++++++++++++++++++++++++++++++++++++++++++++++++++++++++++ywwx++zyyyxxxz++++z+++z+++++++++++++++++++++++++++++++++++
(PID.TID 0000.0001) //     25 +++++++++++++yyyyyxvuvwwwxwxyxy+vvwxvvwxzzxy+++zxxxyxywwqorwxyyy++++++++++++++++++++++xy+yyyxxxwssy+++++++++++++++++++++++++++++++++++++++++++++++++++++++++++ywvwz+zzzwmkmrwyyzz+++z+++++++++++++++++++++++++++++++++++
(PID.TID 0000.0001) //     24 +++++++++++++yyyyyxwwwwstwwxyxy+wswxwswxyzz++++zxxxxy+yxutvxz++++++++++++++++++++++x++xx+yyzyxxvst++++++++++++++++++++++++++++++++++++++++++++++++++++++++++++ywxz++zzukgfghkqvxzz++zz++++++++++++++++++++++++++++++++++
(PID.TID 0000.0001) //     23 +++++++++++++zyyyyxxwwxxwwwxxxwxypvwypvwxz++++++yxxy+++ywwwxz++++++++++++++++++++++oq++xxxzzyyxvsrx+++++++++++++++++++++++++++++++++++++++++++++z+++++++++++++trwy+++wherwyumhkrwxy+wxy++++++++++++++xwwx+++++++++++++++
(PID.TID 0000.0001) //     22 +++++++++++++zyyyyxyxxyyxwwwxxvrxuwyxuwy++++++++yxy+++++yxxwy++++++++++++++++++++++vlr++yxzzzzywuswx++++++++++++++++++++++++++++++++++++++++++++xyz+++++++++++wpqvy+xrht++++++xuuvwwuvwwy+++++++++++wlhhknww++++++++++++
(PID.TID 0000.0001) //     21 +++++++++++++yxxyyyyxxyyxwwwxxrnvw++vw+++++++++++yy++++++zyxy++++++++++++++++++++++vkknx+w++z++xuutwy+++++++++++++++++++++++++++++++++++++++++++xxxz++++++++++yywqsuopv++++++++++ywu+ywuwyz+++++++++pkhghkklw+++++++++++
(PID.TID 0000.0001) //     20 +++++++++++++yxxyyyxxwxxxwwxxxpmqvwxqvwx+++++++++yy++++++z+++++++++++++++++++++++++xkhknwt++++++wwwxz+++++++++++++++++++++++++++++++++++++++++++xxxxxz+++++++++++ywuw++++++++++++++x+++xx+++++x+++++okhhhhklr+++++++++++
(PID.TID 0000.0001) //     19 +++++++++++++zyyyyyyxwwwxwwxxwrnqwxyqwxy+++++++++++++++++y++++++++++++++z++++++++x++qlkmxx++++++xyyz++++++++++++++++++++++++++++++++++++++++++++yyxxwxz+++++++y++++++++++++++++++++++++++++++++ws++xqkhgghlow+++++++++++
(PID.TID 0000.0001) //     18 ++++++++++++++++++++zwwxxxxwwwutwxz+wxz+++++++++++++++++yyy+++yy++++++++wz++zz+++++++xrsy+++++++++++++++++++++++++++++++++++++++++++++++++++++++yyyyxxz+++++yy++++++++++++++++++++++++++++++++++xv+xqlhgfghkrx++++++++++
(PID.TID 0000.0001) //     17 +++++++++++++++++++++yxxyyxwturuy+++y++++++++++++++++++++yy++ywy++++++++vxzzzyy++++++++++++++++++yy+++++++++++++++++++++++++++++++++++++++++++++xxyzzyz++++zwy++++++++++++++++++++++++++++++++++xuwupkhgffghkq++++++++++
(PID.TID 0000.0001) //     16 +++++++++++++++++++++zxxxxxvrtqtz+++z++++++++++++++++++++yy++yy+y++++zyyywwzz++++++++++++++++++++xxy++++++++++++++++++++++++++++++++++++++++++++xxyyyzz++++yw+++++++++++++++++++++++++++++++++++xsonnkhhggghho++++++++++
(PID.TID 0000.0001) //     15 zzzyz+++++++++++++++++yxxxxvsusv++++++++++++++++++++++++++yz++++++++++yw+ytxy+zxwx++++++++++++++zwwx++++++++++++++++++++++++++++++++++++++++y+++yxxxxyz++++yy++++++++++++++++++++++++++++++++++++uoqsvkkhhhhkp++++++++++
(PID.TID 0000.0001) //     14 yyyxxy++++++++++++++++ywwwwvtttw+++++++++++++++++++++++++++++++++++++++y+ytwxzzxwwwx++++++++++++zxwx+++++++++++++++++++++++++++++++++++++++++yy+xxwwxxxyzyxvy++++++++++++++++++++++++++++++++++++woux+xmkhhklv++++++++++
(PID.TID 0000.0001) //     13 yxxxxy++++++++++++++++yvvvvutsux+++++++++++++++++++++++++++++++++++++++++yvwxz++zzyy++++++z++++zyxwxxx++++++++++++++++++++++++++++++++++++++++++wvuttvwwvqot++++++++++++++++++++++++++++++++++++++vwy++plkkkox++++++++++
(PID.TID 0000.0001) //     12 xwwwy+++++++++++++++++xsuvuuuuwxz+++z+++++++++++++++++++++++++++++++++++yywwxzzzzzyy++++++zz++yxwwvxxxx+++++++++++++++++++++++++++++++++++++++++uqnmlossqoqx+++++++++++++++++++++++++++++++++++++++++++qlkklw+++++++++++
(PID.TID 0000.0001) //     11 wwwwz+++++++++++++++++wtvvvvvvwy+++y+++y++++++++++++++++++++++++++zzzz++ywwwxyzzzzzz++z++zzyzywvtrvy++++++++++++++++++++++++++++++++++++++++++++pmmllnqpqw+++++++++++++++++++++++++++++++++++++++++++++qmmmqx+++++++++++
(PID.TID 0000.0001) //     10 wwwx++++++++++++++++++xuvwwvuwyz++xw++xw+++++++++++++++++++++++++zyyyyzzywwwxyzzzzzzzzy++zxxxywvtsx+++++++++++++++++++++++++++++++++++++++++++++onnnoquwy++++++++++++++++++++++++++++++++++++++++++++++xwwxx++++++++++++
(PID.TID 0000.0001) //      9 wwwy++++++++++++++++++ytuvwvvwz+++wy++wy+++++++++++++++++++++++zzzyxyyyyyyyyzzzzzzzzyxxzzywwxxyxxwx+++++++++++++++++++++++++++++++++++++++++++++rponrwyy++++++++++++++++++++++++++++++++++++++++++++++++++++++++++++++++
(PID.TID 0000.0001) //      8 wwyy+++++++++++++++++++tuvvvwy++++xy++xy++++++++++++++++++++++yxxyxxxxyyyxy++zzzzzzyxyz+zzwwxxyxxwwxyy++++++++++++++++++++++++++++++++++++++++++tqposxy+++++++++++++++++++++++++++++++++++++++++++++++++++++++++++++++++
(PID.TID 0000.0001) //      7 wy+++++++++++++++++++++wvvusuz++++y+++y+++++++++++++++++++++++yxxxxxxxyzxsy+zzzzzzzyyzzzzzxxxxwwwvvvxx+++++++++++++++++++++++++++++++++yxxxyy+y+ywxyy+++++++++++++++++++++++++++++++++++++++++++++++++++++++++++++++++++
(PID.TID 0000.0001) //      6 y++++++++++++++++++++++ywusqw+++++++++++++++++++++++++++++++++yxxxxxxxz+yrw+xwzzzzyxyzzzzzxxxwuuwwxwxx++z+++z+++++++++++++++++++++++++zyyyyxxyz+++++++++++++++++++++++++++++++++++++++++++++++++++++++++++++++++++++++++
(PID.TID 0000.0001) //      5 y++++++++++++++++++++++yvtrv++++++++++++++++++++++++++++++++++yxxyyyyyzzwtqvvpy++zyxzzzzzyxxxwsuwwxxxx+++y+++y++++++++++++++++++y++++yyxyzzzyy++++++++++++++++++++++++++++++++++++++++++++++++++++++++++++++++++++++++++
(PID.TID 0000.0001) //      4 ++++++++++++++++++++++++yyy+++++++++++++++++++++++++++++++++++yyyzzzzzzyxwsnnny++zyyyyzzywvtuvtvwwxxwx+++yy++yy++++++++++++++++yw++zxxyyzzzzzz++++++++++++++++++++++++++++++++++++++++++++++++++++++++++++++++++++++++++
(PID.TID 0000.0001) //      3 +++++++++++++++++++++++++++++++++++++++++++++++++++++++++++++++++++++zzyxxtmnvz+zzzyxxxxwqpnotsuvwyxwy+++yy++yy++++++++++++++++wvz++zyzzzzzyzz++++++++++++++++++++++++++++++++++++++++++++++++++++++++++++++++++++++++++
(PID.TID 0000.0001) //      2 ++++++++++++++++++++++++++++++++++++++++++++++++++++++++++++++++++++++zyyyunny+zzzzzxxwwrnmmmqsuvvxxwy+++yy++yy+++++++++++++++ywy+++zyyz+zyyy+++++++++++++++++++++++++++++++++++++++++++++++++++++++++++++++++++++++++++
(PID.TID 0000.0001) //      1 ++++++++++++++++++++++++++++++++++++++++++++++++++++++++++++++++++++++++yxuooy+yyzzyxwwqoomlmqtvutwyyy+++zyz+zyz++++++++++++++yy++++zyyyzzzzz+++++++++++++++++++++++++++++++++++++++++++++++++++++++++++y++++++yz+++++++
(PID.TID 0000.0001) //      0 ++++++++++++++++++++++++++++++++++++++++++++++++++++++++++++++++++++++++wvvonrywwzywommlmpppqtttsuyzzyy+yyyyyyyy++++++++++++++z++++zyyxxxyzz++++++++++++++++++++++++++++++++++++++++++++++++++++++++++++y+++++++yyzz+++z
(PID.TID 0000.0001) //     -1 ++++++++++++++++++++++++++++++++++++++++++++++++++++++++++++++++++++++++qowqnotsswwphglqttrnnqssswz++zy++yy++yy++++++++++++++++++++zyyxxxyz++++++++++++++++++++++++++++++++++++++++++++++++++++++++++++y+++++++yxyzzyz+y
(PID.TID 0000.0001) // =======================================================
(PID.TID 0000.0001) // END OF FIELD                                          =
(PID.TID 0000.0001) // =======================================================
(PID.TID 0000.0001) 
(PID.TID 0000.0001) // =======================================================
(PID.TID 0000.0001) // Field hFacC at iteration          0
(PID.TID 0000.0001) // CMIN =          2.000000000000000E-01
(PID.TID 0000.0001) // CMAX =          1.000000000000000E+00
(PID.TID 0000.0001) // CINT =          2.962962962962963E-02
(PID.TID 0000.0001) // SYMBOLS (CMIN->CMAX): -abcdefghijklmnopqrstuvwxyz+
(PID.TID 0000.0001) //                  0.0: .
(PID.TID 0000.0001) // RANGE I (Lo:Hi:Step):(    -1:   194:     1)
(PID.TID 0000.0001) // RANGE J (Lo:Hi:Step):(    34:    -1:    -1)
(PID.TID 0000.0001) // RANGE K (Lo:Hi:Step):(   1:   1:   1)
(PID.TID 0000.0001) // =======================================================
(PID.TID 0000.0001) K =   1
(PID.TID 0000.0001) //                I=8       I=18      I=28      I=34      I=44      I=54      I=64      I=70      I=80      I=90      I=96      I=106     I=116     I=126     I=132     I=142     I=152     I=162     I=168     I=178     I=188
(PID.TID 0000.0001) // |--J--|101234567|901234567|901234567|901234123|567890123|567890123|567890123|563456789|123456789|123456789|123456785|789012345|789012345|789012345|789078901|345678901|345678901|345678901|901234567|901234567|901234567|901234
(PID.TID 0000.0001) //     34 +++++++++++++++++xqe--bbap+++............k+vtutskgc-..........hj-k+++l+++++++++++++++shiorojd......k+++++++++++++++++++++++++++++++++++++++++++++++++++++++++++++++mgecdell+++++++++++++++++++++++++++++++++++++++++++++
(PID.TID 0000.0001) //     33 +++++++++++++++++sb...bacpkk-............k+pqvspec-...........elkk+++ssl++++++++++++uihknomid......e+++++++++++++++++++++++++++++++++++++++++++++++++++++++++++++++tnhdc--l+++++++++++++++++++++++++++++++++++++++++++++
(PID.TID 0000.0001) //     32 ++++++++++++++++reakkkkc-ke...bilg..lg....kaaro-..............kxrkl+mkkk++++++++++++mgillkije......d++++++++++++++++++++++++++++++++++++++++++++++++++++++++++++++ysnheba--l++++++++++++++++++++++++++++++++++++++++++++
(PID.TID 0000.0001) //     31 +++++++++++++++r-.k+++kkkmkfkdeipp-.pp-......db..............arx+sp++ku++++++++++++vkfilljikga.....k++++++++++++++++++++++++++++++++++++++++++++++++++++++++++++++yspmhbadcclm++++++++++++++++++++++++++++++++++++++++++
(PID.TID 0000.0001) //     30 +++++++++++++++xck+++++++++++k-citk.itk......................jux+++++++++++++++++++rhfipsnkmhc-...k+++++++++++++++++++++++++++++++++++++++++++++++++++++++++++++wuvrmlkgdhha-lu+++++++++++++++++++++++++++++++++++++++++
(PID.TID 0000.0001) //     29 ++++++++++++++++kkbaft+++++++l-bfmvkfmvk.....................ouwz+++++++++++++++++rkddirwtpoifa...k++++++++++++++++++++++++++++++++++++++++++++++++++++++++++++xqoutnjjgfijgfhr+++++++++++++++++++++++++++++++++++++++++
(PID.TID 0000.0001) //     28 +++++++++++++++e..-fhjmtuuvtl---bfnwbfnwl.......-............kkiq+++++++++++++++++rjeejt++uoigc...k++++++++++++++++++++++++++++++++++++++++++++++++++++++++++++ulovwolkjnpooqqrv++++++++++++++++++++++++++++++++++++++++
(PID.TID 0000.0001) //     27 ++++++++++++++l..egiifekstspjd-..beo.beotl.....bta..........bjhdl++++++++++++++++++rkint++xpige-..k++++++++++++++++++++++++++++++++++++++++++++++++++++++++++++ldmwytniiouwxxxvwz+++z+++++++++++++++++++++++++++++++++++
(PID.TID 0000.0001) //     26 +++++++++++++ukfimidbcdgkmiknill.-bj.-bjwsl+lllpmpe.........bfgll++++++++++++++++++++rmo++vpjiga..m+++++++++++++++++++++++++++++++++++++++++++++++++++++++++++m--iyzvnmnffiszxxxv+++v+++++++++++++++++++++++++++++++++++
(PID.TID 0000.0001) //     25 ++++++++++++xqmmonf...b-agcgnil+..bj..bjutgm++zvhhknhkc-...-illl++++++++++++++++++++++jn+qopkih-..o+++++++++++++++++++++++++++++++++++++++++++++++++++++++++++l-.euzwtr-....dlpus+++s+++++++++++++++++++++++++++++++++++
(PID.TID 0000.0001) //     24 ++++++++++++xplmnng--a-..achmil+-.-i-.-inus++++vighho+pe...hvy++++++++++++++++++++zj++jh+pqslih...++++++++++++++++++++++++++++++++++++++++++++++++++++++++++++lbkrxxxu.........isw++sw++++++++++++++++++++++++++++++++++
(PID.TID 0000.0001) //     23 ++++++++++++ysnmmlhf-bifdcbgijcfl..cl..cht++++++lgil+++ob-bgr++++++++++++++++++++++..++jjjrwpli...j+++++++++++++++++++++++++++++++++++++++++++++v+++++++++++++..-qyyxc...cl.....afm+afm++++++++++++++j-cj+++++++++++++++
(PID.TID 0000.0001) //     22 ++++++++++++ysonmmjkfhmnia-cfi..f.alf.al++++++++ofk+++++nigcl++++++++++++++++++++++...++qhrxrrna..aj++++++++++++++++++++++++++++++++++++++++++++kmu+++++++++++e...nxi...++++++e...-d..-dn+++++++++++a.....-d++++++++++++
(PID.TID 0000.0001) //     21 ++++++++++++yojkmnmlhjmmha-cfe...b++.b+++++++++++ll+++++yspjl++++++++++++++++++++++....j+b++v++j...am+++++++++++++++++++++++++++++++++++++++++++fgis++++++++++pl-......++++++++++ke.+ke.-lr+++++++++........-+++++++++++
(PID.TID 0000.0001) //     20 +++++++++++++lfhlnljecfiidbgie....af..af+++++++++lo++++++vxy+++++++++++++++++++++++e....-.++++++-ceju+++++++++++++++++++++++++++++++++++++++++++iihhjr+++++++++++l-.c++++++++++++++k+++kk+++++j+++++.........+++++++++++
(PID.TID 0000.0001) //     19 +++++++++++++ulkoqpqi--bfdcegd...-fm.-fm+++++++++++++++++q++++++++++++++r++++++++j++....jj++++++kmpu++++++++++++++++++++++++++++++++++++++++++++llkidfsz++++++l++++++++++++++++++++++++++++++++b.++j........a+++++++++++
(PID.TID 0000.0001) //     18 ++++++++++++++++++++tbbehgeb--..-kr+-kr+++++++++++++++++llo+++ll++++++++-r++vt+++++++j..l+++++++++++++++++++++++++++++++++++++++++++++++++++++++llnoihry++++ll++++++++++++++++++++++++++++++++++j.+j.........j++++++++++
(PID.TID 0000.0001) //     17 +++++++++++++++++++++lghlkh-....lx++lx+++++++++++++++++++lp++lal++++++++.esxrop++++++++++++++++++qo+++++++++++++++++++++++++++++++++++++++++++++jkorrqvz+++tcl++++++++++++++++++++++++++++++++++j.a...........++++++++++
(PID.TID 0000.0001) //     16 yy+++++++++++++++++++rhhkkg.....r+++r++++++++++++++++++++lly+pl+l++++rllkabqw++++++++++++++++++++fim++++++++++++++++++++++++++++++++++++++++++++iimoorwz+++n-+++++++++++++++++++++++++++++++++++j.............++++++++++
(PID.TID 0000.0001) //     15 sstmr+++++++++++++++++lfghe.....++++++++++++++++++++++++++ls++x+++++++l-+k.eqztfcj++++++++++++++sdbj++++++++++++++++++++++++++++++++++++++++o+++kjijkntx+++ll++++++++++++++++++++++++++++++++++++.............++++++++++
(PID.TID 0000.0001) //     14 pnnghl++++++++++++++++l--aa....a+++++++++++++++++++++++++++++++++++++++l+k.-kxwjccbj++++++++++++ufah+++++++++++++++++++++++++++++++++++++++++kl+geddeginsnf.l++++++++++++++++++++++++++++++++++++a..i+j.......++++++++++
(PID.TID 0000.0001) //     13 mhheio++++++++++++++++l........e+++++++++++++++++++++++++++++++++++++++++k.-guy+vsll++++++t+++yuqe-jjk++++++++++++++++++++++++++++++++++++++++++a.....--....++++++++++++++++++++++++++++++++++++++.cn++......j++++++++++
(PID.TID 0000.0001) //     12 hedcn+++++++++++++++++g.......-gt+++t+++++++++++++++++++++++++++++++zx++kkbbgsvwwuqp++++++tr+yogb-.jkkk+++++++++++++++++++++++++++++++++++++++++...........g+++++++++++++++++++++++++++++++++++++++++++.....a+++++++++++
(PID.TID 0000.0001) //     11 bbcdt+++++++++++++++++c.......al+++l+++l++++++++++++++++++++++++++stttx+kcabfqstuutuyzu+ywsqtna....n++++++++++++++++++++++++++++++++++++++++++++.........b+++++++++++++++++++++++++++++++++++++++++++++.....j+++++++++++
(PID.TID 0000.0001) //     10 aa-e++++++++++++++++++e..--..-kv++gd++gd+++++++++++++++++++++++++vkknpswk-cafqsrrttuusqxytiijkb...j+++++++++++++++++++++++++++++++++++++++++++++.......-l++++++++++++++++++++++++++++++++++++++++++++++j-ajj++++++++++++
(PID.TID 0000.0001) //      9 d--l++++++++++++++++++l...-..cu+++al++al+++++++++++++++++++++++vurlkkmoqmkpprtsrsuttmghtxnabejljh-j+++++++++++++++++++++++++++++++++++++++++++++.....-ll++++++++++++++++++++++++++++++++++++++++++++++++++++++++++++++++
(PID.TID 0000.0001) //      8 c-ll+++++++++++++++++++.....-oz+++fl++fl++++++++++++++++++++++ohilkihhmpkek+yvsstutqjnsxxrddfikie--koq++++++++++++++++++++++++++++++++++++++++++.....fq+++++++++++++++++++++++++++++++++++++++++++++++++++++++++++++++++
(PID.TID 0000.0001) //      7 cl+++++++++++++++++++++a.....s++++l+++l+++++++++++++++++++++++nggiigfhouf.k+wrvtstsnmuxwvshghgc--...ek+++++++++++++++++++++++++++++++++piffkk+k+kdekk+++++++++++++++++++++++++++++++++++++++++++++++++++++++++++++++++++
(PID.TID 0000.0001) //      6 l++++++++++++++++++++++l-...a+++++++++++++++++++++++++++++++++nhhiiggjtyk.-+k-swwumhowxwwtiihb..-bfafk++s+++s+++++++++++++++++++++++++sklnlifmt+++++++++++++++++++++++++++++++++++++++++++++++++++++++++++++++++++++++++
(PID.TID 0000.0001) //      5 m++++++++++++++++++++++n....++++++++++++++++++++++++++++++++++oijlnmnqvxd.....l+zuliquvxwqkhe-..-bjgge+++n+++n++++++++++++++++++l++++nmjottuqp++++++++++++++++++++++++++++++++++++++++++++++++++++++++++++++++++++++++++
(PID.TID 0000.0001) //      4 ++++++++++++++++++++++++kkk+++++++++++++++++++++++++++++++++++qmosuutttqeb....m++toooorul-......--jgck+++kk++kk++++++++++++++++l-++tjglpsuuvvu++++++++++++++++++++++++++++++++++++++++++++++++++++++++++++++++++++++++++
(PID.TID 0000.0001) //      3 ++++++++++++++++++++++++++++++++++++++++++++++++++++++++++++++++++++yvrnii....tyvtrqjhhh-........-kjak+++kk++kk++++++++++++++++-.r+xtprtvwtprw++++++++++++++++++++++++++++++++++++++++++++++++++++++++++++++++++++++++++
(PID.TID 0000.0001) //      2 +++++++++++++++++++++++++++++++++++++++++++++++++++++++++++++++++++++ysppl...k+vtutskgc-..........hj-k+++lk++lk+++++++++++++++l-l+++wqpuyxqnpx++++++++++++++++++++++++++++++++++++++++++++++++++++++++++++++++++++++++++
(PID.TID 0000.0001) //      1 +++++++++++++++++++++++++++++++++++++++++++++++++++++++++++++++++++++++xpg...k+pqvspec-...........elkk+++sku+sku++++++++++++++ll+++xsomotvtrs+++++++++++++++++++++++++++++++++++++++++++++++++++++++++++l++++++kt++++++y
(PID.TID 0000.0001) //      0 ++++++++++++++++++++++++++++++++++++++++++++++++++++++++++++++++++++++++-.....kaaro-..............kxrkl+mkkkmkkk++++++++++++++r+++xtpmhhjqtvy+++++++++++++++++++++++++++++++++++++++++++++++++++++++++++k+++++++mpuwx++s
(PID.TID 0000.0001) //     -1 ++++++++++++++++++++++++++++++++++++++++++++++++++++++++++++++++++++++++..-......db..............arx+sp++km++km+++++++++++++++++++ztnkhfgnty++y++++++++++++++++++++++++++++++++++++++++++++++++++++++++o+++++++kfqvrpsxp
(PID.TID 0000.0001) // =======================================================
(PID.TID 0000.0001) // END OF FIELD                                          =
(PID.TID 0000.0001) // =======================================================
(PID.TID 0000.0001) 
(PID.TID 0000.0001) // =======================================================
(PID.TID 0000.0001) // Field hFacW at iteration          0
(PID.TID 0000.0001) // CMIN =          2.000000000000000E-01
(PID.TID 0000.0001) // CMAX =          1.000000000000000E+00
(PID.TID 0000.0001) // CINT =          2.962962962962963E-02
(PID.TID 0000.0001) // SYMBOLS (CMIN->CMAX): -abcdefghijklmnopqrstuvwxyz+
(PID.TID 0000.0001) //                  0.0: .
(PID.TID 0000.0001) // RANGE I (Lo:Hi:Step):(    -1:   194:     1)
(PID.TID 0000.0001) // RANGE J (Lo:Hi:Step):(    34:    -1:    -1)
(PID.TID 0000.0001) // RANGE K (Lo:Hi:Step):(   1:   1:   1)
(PID.TID 0000.0001) // =======================================================
(PID.TID 0000.0001) K =   1
(PID.TID 0000.0001) //                I=8       I=18      I=28      I=34      I=44      I=54      I=64      I=70      I=80      I=90      I=96      I=106     I=116     I=126     I=132     I=142     I=152     I=162     I=168     I=178     I=188
(PID.TID 0000.0001) // |--J--|101234567|901234567|901234567|901234123|567890123|567890123|567890123|563456789|123456789|123456789|123456785|789012345|789012345|789012345|789078901|345678901|345678901|345678901|901234567|901234567|901234567|901234
(PID.TID 0000.0001) //     34 +++++++++++++++++xqe---baap++.............kvtttskgc-...........h--k++lk.+++++++++++++shhioojd.......k++++++.+++++++++++++++++++++++++++++++++++.+++++++++++++++++++mgeccdell+++++++.+++++++++++++++++++++++++++++++++++.
(PID.TID 0000.0001) //     33 +++++++++++++++++sb....aackk-.............kppqspec-............ekkk++skl++++++++++++uihhknmid.......e++++++++++++++++++++++++++++++++++++++++++++++++++++++++++++++tnhdc---l++++++++++++++++++++++++++++++++++++++++++++
(PID.TID 0000.0001) //     32 ++++++++++++++++reaakkkc--e....big..ig.....aaao-...............krkklmkkk++++++++++++mggilkiie.......d+++++++++++++++++++++++++++++++++++++++++++++++++++++++++++++ysnheba---l+++++++++++++++++++++++++++++++++++++++++++
(PID.TID 0000.0001) //     31 +++++++++++++++r-..k++kkkkkffddeip-.ip-.......b...............arxspp+kku+++++++++++vkffiljiiga......k+++++++++++++++++++++++++++++++++++++++++++++++++++++++++++++yspmhbaaccclm+++++++++++++++++++++++++++++++++++++++++
(PID.TID 0000.0001) //     30 +++++++++++++++xcck++++++++++k--cik.cik.......................jux++++++++++++++++++rhffipnkkhc-....k++++++++++++++++++++++++++++++++++++++++++++++++++++++++++++wuurmlkgddha--lu++++++++++++++++++++++++++++++++++++++++
(PID.TID 0000.0001) //     29 ++++++++++++++++kkbaaft++++++l--bfmkbfmk......................ouwz++++++++++++++++rkdddirtpoifa....k+++++++++++++++++++++++++++++++++++++++++++++++++++++++++++xqootnjjgffigffhr++++++++++++++++++++++++++++++++++++++++
(PID.TID 0000.0001) //     28 +++++++++++++++e...-fhjmtuutl----bfn-bfnl.....................kiiq++++++++++++++++rjeeejt+uoigc....k+++++++++++++++++++++++++++++++++++++++++++++++++++++++++++ullovolkjjnoooqqrv+++v+++++++++++++++++++++++++++++++++++
(PID.TID 0000.0001) //     27 ++++++++++++++l...egifeeksspjd-...be..beol......ba...........bhddl+++++++++++++++++rkiint+xpige-...k+++++++++++++++++++++++++++++++++++++++++++++++++++++++++++lddmwtniiiouwxxvvwz++wz++++++++++++++++++++++++++++++++++
(PID.TID 0000.0001) //     26 +++++++++++++ukffiidbbcdgkiikiil..-b..-bjsllllllmme..........bfgll+++++++++++++++++++rmmo+vpjiga...m++++++++++++++++++++++++++++++++++++++++++++++++++++++++++m---iyvnmmfffisxxxvv++vv++++++++++++++++++++++++++++++++++
(PID.TID 0000.0001) //     25 ++++++++++++xqmmmnf....--accgiil...b...bjtggm+zvhhhkhhc-....-illl+++++++++++++++++++++jjnqookih-...o++++++++++++++++++++++++++++++++++++++++++++++++++++++++++l-..euwtr-.....dlpss++ss++++++++++++++++++++++++++++++++++
(PID.TID 0000.0001) //     24 ++++++++++++xpllmng----...achiil-..--..-inss+++vigghhope....hvy+++++++++++++++++++zjj+jhhppqlih....+++++++++++++++++++++++++++++++++++++++++++++++++++++++++++lbbkrxxu..........isw+isw+++++++++++++++++++++++++++++++++
(PID.TID 0000.0001) //     23 ++++++++++++ysnmmlhf--bfdcbbgiccf...f...cht+++++lggil++ob--bgr+++++++++++++++++++++...+jjjjrpli....j++++++++++++++++++++++++++++++++++++++++++++rv++++++++++++...-qyxc....c......afm.afm+++++++++++++j--cj++++++++++++++
(PID.TID 0000.0001) //     22 ++++++++++++ysonmmjjffhmia--cf.....a...al+++++++offk++++nigccl+++++++++++++++++++++....+qhhrrrna...aj+++++++++++++++++++++++++++++++++++++++++++hkmu++++++++++e....ni....+++++e....-...-dn++++++++++a......-d+++++++++++
(PID.TID 0000.0001) //     21 ++++++++++++yojjkmmlhhjmha--ce....b+..b++++++++++lll++++yspjjl+++++++++++++++++++++.....jbb+vv+j....am++++++++++++++++++++++++++++++++++++++++++ffgis+++++++++pl-.......+++++++++ke.+ke..-lr++++++++.........-++++++++++
(PID.TID 0000.0001) //     20 +++++++++++++lffhlljeccfidbbge.....a...af++++++++llo+++++vvxy++++++++++++++++++++++e.......+++++--ceju++++++++++++++++++++++++++++++++++++++++++iihhhjr++++++++++l-..c+++++++++++++k+++kkk++++jj++++..........++++++++++
(PID.TID 0000.0001) //     19 +++++++++++++ulkkoppi---bdcced....-f..-fm++++++++++++++++qq+++++++++++++rr+++++++jj+.....jj+++++kkmpu+++++++++++++++++++++++++++++++++++++++++++llkiddfsz+++++ll+++++++++++++++++++++++++++++++b..+j.........a++++++++++
(PID.TID 0000.0001) //     18 w+++++++++++++++++++tbbbegeb--...-kr.-kr++++++++++++++++lllo++lll+++++++--r+vtt++++++j...l++++++++++++++++++++++++++++++++++++++++++++++++++++++lllnihhry+++lll+++++++++++++++++++++++++++++++++j..j..........j+++++++++
(PID.TID 0000.0001) //     17 u++++++++++++++++++++lgghkh-.....lx+.lx++++++++++++++++++llp+laal+++++++..esroop+++++++++++++++++qoo++++++++++++++++++++++++++++++++++++++++++++jjkorqqvz++tccl+++++++++++++++++++++++++++++++++j..............+++++++++
(PID.TID 0000.0001) //     16 vyy++++++++++++++++++rhhhkg......r++.r+++++++++++++++++++lllypllll+++rllkaabqw+++++++++++++++++++ffim+++++++++++++++++++++++++++++++++++++++++++iiimoorwz++n--++++++++++++++++++++++++++++++++++j..............+++++++++
(PID.TID 0000.0001) //     15 rssmmr++++++++++++++++lffge......+++.+++++++++++++++++++++lls+xx++++++l-+k..eqtfccj+++++++++++++sdbbj+++++++++++++++++++++++++++++++++++++++oo++kjiijkntx++lll+++++++++++++++++++++++++++++++++++..............+++++++++
(PID.TID 0000.0001) //     14 mnngghl+++++++++++++++l---a.....a+++a++++++++++++++++++++++++++++++++++l+k..-kwjccbbj+++++++++++ufaah++++++++++++++++++++++++++++++++++++++++kklgedddeginnf..l+++++++++++++++++++++++++++++++++++a...ij........+++++++++
(PID.TID 0000.0001) //     13 lhheeio+++++++++++++++l.........e+++e++++++++++++++++++++++++++++++++++++k..-guyvslll+++++tt++yuqe--jjk+++++++++++++++++++++++++++++++++++++++++a......-.....+++++++++++++++++++++++++++++++++++++..cn+.......j+++++++++
(PID.TID 0000.0001) //     12 hedccn++++++++++++++++g........-gt++gt++++++++++++++++++++++++++++++zxx+kkbbbgsvwuqpp+++++trryogb-..jkkk++++++++++++++++++++++++++++++++++++++++............g++++++++++++++++++++++++++++++++++++++++++......a++++++++++
(PID.TID 0000.0001) //     11 bbbcdt++++++++++++++++c........al++ll++ll+++++++++++++++++++++++++sstttxkcaabfqstuttuyuuywsqqna.....n+++++++++++++++++++++++++++++++++++++++++++..........b++++++++++++++++++++++++++++++++++++++++++++......j++++++++++
(PID.TID 0000.0001) //     10 aa--e+++++++++++++++++e...-...-kv+gdv+gdd++++++++++++++++++++++++vkkknpsk--aafqrrrttusqqxtiiijb....j++++++++++++++++++++++++++++++++++++++++++++........-l+++++++++++++++++++++++++++++++++++++++++++++j--ajj+++++++++++
(PID.TID 0000.0001) //      9 d---l+++++++++++++++++l.......cu++aa++aal++++++++++++++++++++++vurlkkkmomkkpprsrrsttmgghtnaabejjh--j++++++++++++++++++++++++++++++++++++++++++++......-ll+++++++++++++++++++++++++++++++++++++++++++++++++++++++++++++++
(PID.TID 0000.0001) //      8 c--ll++++++++++++++++++......-oz++ff++ffl+++++++++++++++++++++ohhikihhhmkeekyvsssttqjjnsxrdddfiie---koq+++++++++++++++++++++++++++++++++++++++++......fq++++++++++++++++++++++++++++++++++++++++++++++++++++++++++++++++
(PID.TID 0000.0001) //      7 acl++++++++++++++++++++a......s+++ll++ll++++++++++++++++++++++ngggigffhof..kwrrtsssnmmuwvshgggc--....ek++++++++++++++++++++++++++++++++pifffkkkkkddekk++++++++++++++++++++++++++++++++++++++++++++++++++++++++++++++++++
(PID.TID 0000.0001) //      6 -l+++++++++++++++++++++l-....a++++++++++++++++++++++++++++++++nhhhigggjtk..-k--swumhhowwwtiihb...-baafk+ss++ss++++++++++++++++++++++++skklliffmt++++++++++++++++++++++++++++++++++++++++++++++++++++++++++++++++++++++++
(PID.TID 0000.0001) //      5 lm+++++++++++++++++++++n.....+++++++++++++++++++++++++++++++++oiijlmmnqvd......lzuliiquvwqkhe-...-bggee++nn++nn+++++++++++++++++ll+++nmjjottqpp+++++++++++++++++++++++++++++++++++++++++++++++++++++++++++++++++++++++++
(PID.TID 0000.0001) //      4 u+++++++++++++++++++++++kkkk++++++++++++++++++++++++++++++++++qmmosutttq-b.....m+tooooorl-.......--gcck++kkk+kkk+++++++++++++++l--+tjgglpsuuvuu+++++++++++++++++++++++++++++++++++++++++++++++++++++++++++++++++++++++++
(PID.TID 0000.0001) //      3 ++++++++++++++++++++++++++++++++++++++++++++++++++++++++++++++++++++yvrnci.....tvtrqjhhh-.........-jaak++kkk+kkk+++++++++++++++-..rxtpprtvtpprw+++++++++++++++++++++++++++++++++++++++++++++++++++++++++++++++++++++++++
(PID.TID 0000.0001) //      2 +++++++++++++++++++++++++++++++++++++++++++++++++++++++++++++++++++++yspil....kvtttskgc-...........h--k++lkk+lkk++++++++++++++l--l++wqppuxqnnpx+++++++++++++++++++++++++++++++++++++++++++++++++++++++++++++++++++++++++
(PID.TID 0000.0001) //      1 +++++++++++++++++++++++++++++++++++++++++++++++++++++++++++++++++++++++xpg....kppqspec-............ekkk++skk+skku+++++++++++++lll++xsommottrrs++++++++++++++++++++++++++++++++++++++++++++++++++++++++++ll+++++kkt+++++y
(PID.TID 0000.0001) //      0 ++++++++++++++++++++++++++++++++++++++++++++++++++++++++++++++++++++++++-......aaao-...............krkklmkkkmkkkk+++++++++++++rr++xtpmhhhjqtvy++++++++++++++++++++++++++++++++++++++++++++++++++++++++++kk++++++mmpuwx+s
(PID.TID 0000.0001) //     -1 ++++++++++++++++++++++++++++++++++++++++++++++++++++++++++++++++++++++xp..-.......b...............arxspp+kku+kmm++++++++++++++++++ztnkhffgnty++++++++++++++++++++++++++++++++++++++++++++++++++++++++++oo++++++kffqrppsy
(PID.TID 0000.0001) // =======================================================
(PID.TID 0000.0001) // END OF FIELD                                          =
(PID.TID 0000.0001) // =======================================================
(PID.TID 0000.0001) 
(PID.TID 0000.0001) // =======================================================
(PID.TID 0000.0001) // Field hFacS at iteration          0
(PID.TID 0000.0001) // CMIN =          2.000000000000000E-01
(PID.TID 0000.0001) // CMAX =          1.000000000000000E+00
(PID.TID 0000.0001) // CINT =          2.962962962962963E-02
(PID.TID 0000.0001) // SYMBOLS (CMIN->CMAX): -abcdefghijklmnopqrstuvwxyz+
(PID.TID 0000.0001) //                  0.0: .
(PID.TID 0000.0001) // RANGE I (Lo:Hi:Step):(    -1:   194:     1)
(PID.TID 0000.0001) // RANGE J (Lo:Hi:Step):(    34:    -1:    -1)
(PID.TID 0000.0001) // RANGE K (Lo:Hi:Step):(   1:   1:   1)
(PID.TID 0000.0001) // =======================================================
(PID.TID 0000.0001) K =   1
(PID.TID 0000.0001) //                I=8       I=18      I=28      I=34      I=44      I=54      I=64      I=70      I=80      I=90      I=96      I=106     I=116     I=126     I=132     I=142     I=152     I=162     I=168     I=178     I=188
(PID.TID 0000.0001) // |--J--|101234567|901234567|901234567|901234123|567890123|567890123|567890123|563456789|123456789|123456789|123456785|789012345|789012345|789012345|789078901|345678901|345678901|345678901|901234567|901234567|901234567|901234
(PID.TID 0000.0001) //     34 +++++++++++++++++sb...baapkk-........g...k+pquspec-...........ej-k+++lk.++++++++++++uihinomid......e+++++++.+++++++++++++++++++++++++++++++++++.+++++++++++++++++++mgecc--l++++++++.+++++++++++++++++++++++++++++++++++.
(PID.TID 0000.0001) //     33 ++++++++++++++++rea...ba-ke...............kaaro-..............elkkl+mkkk++++++++++++mghklkiid......d++++++++++++++++++++++++++++++++++++++++++++++++++++++++++++++ysnhdb---l++++++++++++++++++++++++++++++++++++++++++++
(PID.TID 0000.0001) //     32 +++++++++++++++r-.akkkkc-ke...bilg..lg.......db...............kxrkl+mkkk+++++++++++vkfilljije......d++++++++++++++++++++++++++++++++++++++++++++++++++++++++++++++ysnheba--clm++++++++++++++++++++++++++++++++++++++++++
(PID.TID 0000.0001) //     31 +++++++++++++++r-.k+++kkkmkfkd-cip-.ip-......................arx+sp++ku++++++++++++rhfilljikga.....k++++++++++++++++++++++++++++++++++++++++++++++++++++++++++++wuvrmlhbadca-lu+++++++++++++++++++++++++++++++++++++++++
(PID.TID 0000.0001) //     30 +++++++++++++++xckbaft+++++++k-bfmk.fmk......................juwz+++++++++++++++++rkddipsnkmhc-...k++++++++++++++++++++++++++++++++++++++++++++++++++++++++++++xqourmjjgdhha-hr+++++++++++++++++++++++++++++++++++++++++
(PID.TID 0000.0001) //     29 +++++++++++++++e..-afjmtuuvtl---bfnkbfnk.....................kkiq+++++++++++++++++rjddirwtpoifa...k++++++++++++++++++++++++++++++++++++++++++++++++++++++++++++uloutnjjgfijgfhrv++++++++++++++++++++++++++++++++++++++++
(PID.TID 0000.0001) //     28 ++++++++++++++l...-fhfekstspj--..beo.beol.......-............jhdl+++++++++++++++++rjeejt++uoigc...k++++++++++++++++++++++++++++++++++++++++++++++++++++++++++++ldmvwoliinpooqqrvz+++z+++++++++++++++++++++++++++++++++++
(PID.TID 0000.0001) //     27 +++++++++++++uk..egdbcdgkmikjd-..-bj.-bjtl.....bma..........bfgdl++++++++++++++++++rkimo++vpige-..k+++++++++++++++++++++++++++++++++++++++++++++++++++++++++++m--iwytniiffisxxvwv+++v+++++++++++++++++++++++++++++++++++
(PID.TID 0000.0001) //     26 ++++++++++++xqkfimf...b-agcgnill..bj..bjusgmlllphhe.........bfgll++++++++++++++++++++rjn+qopjig-..m+++++++++++++++++++++++++++++++++++++++++++++++++++++++++++l-.euzvnm-....dlpus+++s+++++++++++++++++++++++++++++++++++
(PID.TID 0000.0001) //     25 ++++++++++++xplmnnf...-..acgmil+..-i..-intgm++zvhghhhkc-...-illl++++++++++++++++++zj++jh+popkih...o+++++++++++++++++++++++++++++++++++++++++++++++++++++++++++l-.euxwt.........isw++sw++++++++++++++++++++++++++++++++++
(PID.TID 0000.0001) //     24 ++++++++++++xplmmlg--a-..abgiicf-..c-..chts++++vighho+pe...gry++++++++++++++++++++z..+jhjjqslih...j+++++++++++++++++++++++++++++++++++++++++++++v+++++++++++++..-qxxxc..........afm+afm++++++++++++++j-cj+++++++++++++++
(PID.TID 0000.0001) //     23 ++++++++++++ysnmmlhf-bifda-cfi..f..cf..cht++++++lfil+++ob-bcl++++++++++++++++++++++...+jjhrwpli...aj++++++++++++++++++++++++++++++++++++++++++++kmu+++++++++++....nxi....cl.......-d..-dn+++++++++++a.....-d++++++++++++
(PID.TID 0000.0001) //     22 ++++++++++++yojkmmjkfhmmha-cfe....al..al++++++++ofk+++++nigcl++++++++++++++++++++++....jqbrxrrna...am+++++++++++++++++++++++++++++++++++++++++++fgis++++++++++e.........++++++e...-...-.-lr+++++++++........-+++++++++++
(PID.TID 0000.0001) //     21 ++++++++++++ylfhlnljecfiha-cfe....af..af+++++++++ll+++++yspjl++++++++++++++++++++++.....-.++v++j...am+++++++++++++++++++++++++++++++++++++++++++fghhjr++++++++pl-......++++++++++ke.+ke.-lr+++j+++++.........+++++++++++
(PID.TID 0000.0001) //     20 +++++++++++++lfhlnlje--bfdbegd....af..af+++++++++lo++++++qxy++++++++++++r++++++++j+e....-.++++++-ceju+++++++++++++++++++++++++++++++++++++++++++iihhdfsz++++++l++l-.c++++++++++++++k+++kk+++++jb.++j.........+++++++++++
(PID.TID 0000.0001) //     19 +++++++++++++ulkoqpqi--bfdcb--...-fm.-fm++++++++++++++++llo+++ll++++++++-r++vt+++j++....jj++++++kmpu++++++++++++++++++++++++++++++++++++++++++++llkidfry++++lll++++++++++++++++++++++++++++++++b..+j.........j++++++++++
(PID.TID 0000.0001) //     18 ++++++++++++++++++++tbbehge-....-kr+-kr+++++++++++++++++llo++lal++++++++.esxrop++++++j..l++++++++qo+++++++++++++++++++++++++++++++++++++++++++++jknoihry+++tcl++++++++++++++++++++++++++++++++++j.a...........++++++++++
(PID.TID 0000.0001) //     17 yy+++++++++++++++++++lghkkg.....lx++lx+++++++++++++++++++lly+lall++++rll.abqrop++++++++++++++++++fim++++++++++++++++++++++++++++++++++++++++++++iimooqvz+++n-l++++++++++++++++++++++++++++++++++j.............++++++++++
(PID.TID 0000.0001) //     16 sstmr++++++++++++++++rhfghe.....r+++r++++++++++++++++++++lls+pl+l++++rl-ka.eqztfcj++++++++++++++sdbj++++++++++++++++++++++++++++++++++++++++o+++iiijkntx+++l-+++++++++++++++++++++++++++++++++++j.............++++++++++
(PID.TID 0000.0001) //     15 pnnghl++++++++++++++++l--aa.....++++++++++++++++++++++++++ls++x+++++++l-+k.-kxtfccbj++++++++++++sdah++++++++++++++++++++++++++++++++++++++++okl+geddeginsnf.l++++++++++++++++++++++++++++++++++++.............++++++++++
(PID.TID 0000.0001) //     14 mhhehl++++++++++++++++l........a+++++++++++++++++++++++++++++++++++++++l+k.-guwjccbj++++++t+++yuqe-hjk+++++++++++++++++++++++++++++++++++++++kl+a.....--....l++++++++++++++++++++++++++++++++++++a..i+j.......++++++++++
(PID.TID 0000.0001) //     13 hedcio++++++++++++++++g........et+++t+++++++++++++++++++++++++++++++zx++kk.-gsvwvsll++++++tr+yogb-.jjkk+++++++++++++++++++++++++++++++++++++++++............++++++++++++++++++++++++++++++++++++++.cn++......j++++++++++
(PID.TID 0000.0001) //     12 bbccn+++++++++++++++++c.......-gt++lt++l++++++++++++++++++++++++++stttx+kcabfqstuuqpyzu+ywsqtna....jkkk+++++++++++++++++++++++++++++++++++++++++...........g+++++++++++++++++++++++++++++++++++++++++++.....a+++++++++++
(PID.TID 0000.0001) //     11 aa-dt+++++++++++++++++c.......al++gd++gd+++++++++++++++++++++++++vkknpswk-aafqsrrttuusqxytiijka....n++++++++++++++++++++++++++++++++++++++++++++.........b+++++++++++++++++++++++++++++++++++++++++++++.....j+++++++++++
(PID.TID 0000.0001) //     10 a--e++++++++++++++++++e...-..-kv++ad++ad+++++++++++++++++++++++vurkkkmoqk-cafqsrrtttmghtxnabejb...j+++++++++++++++++++++++++++++++++++++++++++++.......-l++++++++++++++++++++++++++++++++++++++++++++++j-ajj++++++++++++
(PID.TID 0000.0001) //      9 c--l++++++++++++++++++l......cu+++al++al++++++++++++++++++++++ohilkihhmpkekprtsrsutqjghtxnabeikie--koq++++++++++++++++++++++++++++++++++++++++++.....-ll++++++++++++++++++++++++++++++++++++++++++++++++++++++++++++++++
(PID.TID 0000.0001) //      8 c-ll+++++++++++++++++++......oz+++fl++fl++++++++++++++++++++++nggiigfhmpf.k+wrssstsnjnswvrddfgc--...ek+++++++++++++++++++++++++++++++++piffkk+k+.....fq+++++++++++++++++++++++++++++++++++++++++++++++++++++++++++++++++
(PID.TID 0000.0001) //      7 cl+++++++++++++++++++++a.....s++++l+++l+++++++++++++++++++++++nggiigfhouf.-+k-ststmhmuxwvshghb..-...ek++s+++s+++++++++++++++++++++++++skiffifmk+kdekk+++++++++++++++++++++++++++++++++++++++++++++++++++++++++++++++++++
(PID.TID 0000.0001) //      6 l++++++++++++++++++++++l....a+++++++++++++++++++++++++++++++++nhhiiggjtxd.....lwwulhouvwwqihe-..-bfafe++sn++sn++++++++++++++++++l++++nmjlnlifmt+++++++++++++++++++++++++++++++++++++++++++++++++++++++++++++++++++++++++
(PID.TID 0000.0001) //      5 m++++++++++++++++++++++n....++++++++++++++++++++++++++++++++++oijlnmnqtqd.....l+ztlioorul-......--jgce+++kk++kk++++++++++++++++l-++tjgljottuqp++++++++++++++++++++++++++++++++++++++++++++++++++++++++++++++++++++++++++
(PID.TID 0000.0001) //      4 ++++++++++++++++++++++++kkk+++++++++++++++++++++++++++++++++++qmosuuttrneb....myvtoojhhh-........-jgak+++kk++kk++++++++++++++++-.r+tjglpsutpru++++++++++++++++++++++++++++++++++++++++++++++++++++++++++++++++++++++++++
(PID.TID 0000.0001) //      3 ++++++++++++++++++++++++++++++++++++++++++++++++++++++++++++++++++++yvrnii....tvttrqjgc-..........hj-k+++kk++kk+++++++++++++++l-.r+xtpptvwqnpw++++++++++++++++++++++++++++++++++++++++++++++++++++++++++++++++++++++++++
(PID.TID 0000.0001) //      2 +++++++++++++++++++++++++++++++++++++++++++++++++++++++++++++++++++++ysppg...k+pquspec-...........ej-k+++lku+lku++++++++++++++l-l++xsomotvqnpx++++++++++++++++++++++++++++++++++++++++++++++++++++++++++l++++++kt++++++y
(PID.TID 0000.0001) //      1 +++++++++++++++++++++++++++++++++++++++++++++++++++++++++++++++++++++++x-.....kaaro-..............elkkl+mkkkmkkk++++++++++++++ll++xtpmhhjqtrs+++++++++++++++++++++++++++++++++++++++++++++++++++++++++++k++++++kmpuwx++s
(PID.TID 0000.0001) //      0 ++++++++++++++++++++++++++++++++++++++++++++++++++++++++++++++++++++++xp.g.......db...............kxrkl+mkkkmskk++++++++++++++r+++xtnkhfgntvy++++++++++++++++++++++++++++++++++++++++++++++++++++++++++ok++++++kfpurpsy+
(PID.TID 0000.0001) //     -1 ++++++++++++++++++++++++++++++++++++++++++++++++++++++++++++++++++++++wpip-......................arx+sp++ku++km+++++++++++++++++++ztkkhfgmty+++++++++++++++++++++++++++++++++++++++++++++++++++++++++++o+++++++kfqvpnrvy
(PID.TID 0000.0001) // =======================================================
(PID.TID 0000.0001) // END OF FIELD                                          =
(PID.TID 0000.0001) // =======================================================
(PID.TID 0000.0001) 
(PID.TID 0000.0001) GAD_INIT_FIXED: GAD_OlMinSize=  2  0  1
(PID.TID 0000.0001) 
(PID.TID 0000.0001) // ===================================
(PID.TID 0000.0001) // GAD parameters :
(PID.TID 0000.0001) // ===================================
(PID.TID 0000.0001) tempAdvScheme =   /* Temp. Horiz.Advection scheme selector */
(PID.TID 0000.0001)                       2
(PID.TID 0000.0001)     ;
(PID.TID 0000.0001) tempVertAdvScheme =   /* Temp. Vert. Advection scheme selector */
(PID.TID 0000.0001)                       2
(PID.TID 0000.0001)     ;
(PID.TID 0000.0001) tempMultiDimAdvec =   /* use Muti-Dim Advec method for Temp */
(PID.TID 0000.0001)                   F
(PID.TID 0000.0001)     ;
(PID.TID 0000.0001) tempSOM_Advection = /* use 2nd Order Moment Advection for Temp */
(PID.TID 0000.0001)                   F
(PID.TID 0000.0001)     ;
(PID.TID 0000.0001) AdamsBashforthGt = /* apply Adams-Bashforth extrapolation on Gt */
(PID.TID 0000.0001)                   T
(PID.TID 0000.0001)     ;
(PID.TID 0000.0001) AdamsBashforth_T = /* apply Adams-Bashforth extrapolation on Temp */
(PID.TID 0000.0001)                   F
(PID.TID 0000.0001)     ;
(PID.TID 0000.0001) saltAdvScheme =   /* Salt. Horiz.advection scheme selector */
(PID.TID 0000.0001)                       3
(PID.TID 0000.0001)     ;
(PID.TID 0000.0001) saltVertAdvScheme =   /* Salt. Vert. Advection scheme selector */
(PID.TID 0000.0001)                       3
(PID.TID 0000.0001)     ;
(PID.TID 0000.0001) saltMultiDimAdvec =   /* use Muti-Dim Advec method for Salt */
(PID.TID 0000.0001)                   F
(PID.TID 0000.0001)     ;
(PID.TID 0000.0001) saltSOM_Advection = /* use 2nd Order Moment Advection for Salt */
(PID.TID 0000.0001)                   F
(PID.TID 0000.0001)     ;
(PID.TID 0000.0001) AdamsBashforthGs = /* apply Adams-Bashforth extrapolation on Gs */
(PID.TID 0000.0001)                   T
(PID.TID 0000.0001)     ;
(PID.TID 0000.0001) AdamsBashforth_S = /* apply Adams-Bashforth extrapolation on Salt */
(PID.TID 0000.0001)                   F
(PID.TID 0000.0001)     ;
(PID.TID 0000.0001) // ===================================
(PID.TID 0000.0001)  LAND_READPARMS: opening data.land
(PID.TID 0000.0001)  OPEN_COPY_DATA_FILE: opening file data.land
(PID.TID 0000.0001) // =======================================================
(PID.TID 0000.0001) // Parameter file "data.land"
(PID.TID 0000.0001) // =======================================================
(PID.TID 0000.0001) ># Land package parameters:
(PID.TID 0000.0001) >
(PID.TID 0000.0001) >#--  Land model parameter (namelist LAND_MODEL_PAR):
(PID.TID 0000.0001) >#     land_calc_grT  :: step forward ground Temperature
(PID.TID 0000.0001) >#     land_calc_grW  :: step forward soil moiture
(PID.TID 0000.0001) >#     land_impl_grT  :: solve ground Temperature implicitly
(PID.TID 0000.0001) >#     land_calc_snow :: step forward snow thickness
(PID.TID 0000.0001) >#     land_calc_alb  :: compute albedo of snow over land
(PID.TID 0000.0001) >#     land_oldPickup :: restart from an old pickup (=before checkpoint 52l_post)
(PID.TID 0000.0001) >#     land_grT_iniFile  :: File containing initial ground Temp.
(PID.TID 0000.0001) >#     land_grW_iniFile  :: File containing initial ground Water.
(PID.TID 0000.0001) >#     land_snow_iniFile :: File containing initial snow thickness.
(PID.TID 0000.0001) >#     land_deltaT   :: land model time-step
(PID.TID 0000.0001) >#     land_taveFreq :: Frequency^-1 for time-Aver. output (s)
(PID.TID 0000.0001) >#     land_diagFreq :: Frequency^-1 for diagnostic output (s)
(PID.TID 0000.0001) >#     land_monFreq  :: Frequency^-1 for monitor    output (s)
(PID.TID 0000.0001) >#     land_dzF      :: layer thickness
(PID.TID 0000.0001) > &LAND_MODEL_PAR
(PID.TID 0000.0001) ># land_calc_grT =.FALSE.,
(PID.TID 0000.0001) ># land_calc_grW =.FALSE.,
(PID.TID 0000.0001) ># land_impl_grT =.FALSE.,
(PID.TID 0000.0001) ># land_calc_snow=.FALSE.,
(PID.TID 0000.0001) ># land_calc_alb =.FALSE.,
(PID.TID 0000.0001) >  land_grT_iniFile='land_grT_ini.bin',
(PID.TID 0000.0001) >  land_grW_iniFile='land_grW_ini.bin',
(PID.TID 0000.0001) ># land_oldPickup=.TRUE.,
(PID.TID 0000.0001) >  land_dzF= 0.1, 4.0,
(PID.TID 0000.0001) ># land_diagFreq=1.,
(PID.TID 0000.0001) > /
(PID.TID 0000.0001) >
(PID.TID 0000.0001) >#--  Physical constants (namelist LAND_PHYS_PAR):
(PID.TID 0000.0001) >#     land_grdLambda  :: Thermal conductivity of the ground (W/m/K)
(PID.TID 0000.0001) >#     land_heatCs     :: Heat capacity of dry soil (J/m3/K)
(PID.TID 0000.0001) >#     land_CpWater    :: Heat capacity of water    (J/kg/K)
(PID.TID 0000.0001) >#     land_wTauDiff   :: soil moisture diffusion time scale
(PID.TID 0000.0001) >#     land_waterCap   :: field capacity per meter of soil
(PID.TID 0000.0001) >#     land_fractRunOff:: fraction of water in excess which run-off
(PID.TID 0000.0001) >#     land_rhoLiqW    :: density of liquid water (kg/m3)
(PID.TID 0000.0001) >#     land_rhoSnow    :: density of snow (kg/m3)
(PID.TID 0000.0001) >#     land_Lfreez     :: Latent heat of freezing (J/kg)
(PID.TID 0000.0001) >#     land_hMaxSnow   :: Maximum snow-thickness  (m)
(PID.TID 0000.0001) >#     diffKsnow       :: thermal conductivity of snow (W/m/K)
(PID.TID 0000.0001) >#     timeSnowAge     :: snow aging time scale   (s)
(PID.TID 0000.0001) >#     hNewSnowAge     :: new snow thickness that refresh the snow-age (by 1/e)
(PID.TID 0000.0001) >#     albColdSnow     :: albedo of cold (=dry) new snow (Tsfc < -10)
(PID.TID 0000.0001) >#     albWarmSnow     :: albedo of warm (=wet) new snow (Tsfc = 0)
(PID.TID 0000.0001) >#     albOldSnow      :: albedo of old snow (snowAge > 35.d)
(PID.TID 0000.0001) >#     hAlbSnow        :: snow thickness for albedo transition: snow/ground
(PID.TID 0000.0001) > &LAND_PHYS_PAR
(PID.TID 0000.0001) ># land_Lfreez=0.,
(PID.TID 0000.0001) > /
(PID.TID 0000.0001) 
(PID.TID 0000.0001)  LAND_READPARMS: finished reading data.land
(PID.TID 0000.0001) 
(PID.TID 0000.0001) // ===================================
(PID.TID 0000.0001) // Land package parameters :
(PID.TID 0000.0001) // ===================================
(PID.TID 0000.0001) land_calc_grT = /* step forward ground Temp. on/off flag */
(PID.TID 0000.0001)                   T
(PID.TID 0000.0001)     ;
(PID.TID 0000.0001) land_calc_grW = /* step forward soil moiture on/off flag */
(PID.TID 0000.0001)                   T
(PID.TID 0000.0001)     ;
(PID.TID 0000.0001) land_impl_grT = /* solve ground temperature implicitly */
(PID.TID 0000.0001)                   T
(PID.TID 0000.0001)     ;
(PID.TID 0000.0001) land_calc_snow = /* step forward snow thickness */
(PID.TID 0000.0001)                   T
(PID.TID 0000.0001)     ;
(PID.TID 0000.0001) land_calc_alb = /* compute land+snow albedo */
(PID.TID 0000.0001)                   T
(PID.TID 0000.0001)     ;
(PID.TID 0000.0001) land_grT_iniFile = /* Initial ground-Temp Input-File */
(PID.TID 0000.0001)                 land_grT_ini.bin
(PID.TID 0000.0001)     ;
(PID.TID 0000.0001) land_grW_iniFile = /* Initial soil-Water Input-File */
(PID.TID 0000.0001)                 land_grW_ini.bin
(PID.TID 0000.0001)     ;
(PID.TID 0000.0001) land_deltaT = /* land model Time-Step (s) */
(PID.TID 0000.0001)                 4.500000000000000E+02
(PID.TID 0000.0001)     ;
(PID.TID 0000.0001) land_taveFreq = /* Frequency^-1 for time-Aver. output (s) */
(PID.TID 0000.0001)                 2.592000000000000E+06
(PID.TID 0000.0001)     ;
(PID.TID 0000.0001) land_diagFreq = /* Frequency^-1 for diagnostic output (s) */
(PID.TID 0000.0001)                 7.776000000000000E+06
(PID.TID 0000.0001)     ;
(PID.TID 0000.0001) land_monFreq = /* Frequency^-1 for monitor output (s) */
(PID.TID 0000.0001)                 7.776000000000000E+06
(PID.TID 0000.0001)     ;
(PID.TID 0000.0001) land_dzF = /* layer thickness ( m ) */
(PID.TID 0000.0001)                 1.000000000000000E-01,      /* K =  1 */
(PID.TID 0000.0001)                 4.000000000000000E+00       /* K =  2 */
(PID.TID 0000.0001)     ;
(PID.TID 0000.0001) land_rec_dzC= /* recip. vertical spacing (m-1) */
(PID.TID 0000.0001)                 2.000000000000000E+01,      /* K =  1 */
(PID.TID 0000.0001)                 4.878048780487805E-01       /* K =  2 */
(PID.TID 0000.0001)     ;
(PID.TID 0000.0001) land_timeave_mdsio = /* use MDSIO for Tave output */
(PID.TID 0000.0001)                   T
(PID.TID 0000.0001)     ;
(PID.TID 0000.0001) land_timeave_mnc = /* use MNC for Tave output */
(PID.TID 0000.0001)                   F
(PID.TID 0000.0001)     ;
(PID.TID 0000.0001) land_snapshot_mdsio = /* use MDSIO for snapshot output */
(PID.TID 0000.0001)                   T
(PID.TID 0000.0001)     ;
(PID.TID 0000.0001) land_snapshot_mnc = /* use MNC for snapshot output */
(PID.TID 0000.0001)                   F
(PID.TID 0000.0001)     ;
(PID.TID 0000.0001) land_mon_stdio = /* use STDOUT for monitor output */
(PID.TID 0000.0001)                   T
(PID.TID 0000.0001)     ;
(PID.TID 0000.0001) land_mon_mnc = /* use MNC for monitor output */
(PID.TID 0000.0001)                   F
(PID.TID 0000.0001)     ;
(PID.TID 0000.0001) land_pickup_write_mnc = /* use MNC for writing pickups */
(PID.TID 0000.0001)                   F
(PID.TID 0000.0001)     ;
(PID.TID 0000.0001) land_pickup_read_mnc = /* use MNC for reading pickups */
(PID.TID 0000.0001)                   F
(PID.TID 0000.0001)     ;
(PID.TID 0000.0001) land_grdLambda = /* Thermal conductivity of the ground (W/m/K)*/
(PID.TID 0000.0001)                 4.200000000000000E-01
(PID.TID 0000.0001)     ;
(PID.TID 0000.0001) land_heatCs = /* Heat capacity of dry soil (J/m3/K) */
(PID.TID 0000.0001)                 1.130000000000000E+06
(PID.TID 0000.0001)     ;
(PID.TID 0000.0001) land_CpWater = /* Heat capacity of water    (J/kg/K) */
(PID.TID 0000.0001)                 4.200000000000000E+03
(PID.TID 0000.0001)     ;
(PID.TID 0000.0001) land_wTauDiff = /* soil moisture diffusion time scale (s) */
(PID.TID 0000.0001)                 1.728000000000000E+05
(PID.TID 0000.0001)     ;
(PID.TID 0000.0001) land_waterCap = /* field capacity per meter of soil (1) */
(PID.TID 0000.0001)                 2.400000000000000E-01
(PID.TID 0000.0001)     ;
(PID.TID 0000.0001) land_fractRunOff= /* fraction of water in excess which run-off */
(PID.TID 0000.0001)                 5.000000000000000E-01
(PID.TID 0000.0001)     ;
(PID.TID 0000.0001) land_rhoLiqW = /* density of liquid water (kg/m3) */
(PID.TID 0000.0001)                 1.000000000000000E+03
(PID.TID 0000.0001)     ;
(PID.TID 0000.0001) land_rhoSnow = /* density of snow (kg/m3) */
(PID.TID 0000.0001)                 3.300000000000000E+02
(PID.TID 0000.0001)     ;
(PID.TID 0000.0001) land_Lfreez = /* Latent heat of freezing (J/kg) */
(PID.TID 0000.0001)                 3.340000000000000E+05
(PID.TID 0000.0001)     ;
(PID.TID 0000.0001) land_hMaxSnow = /* maximum snow-thickness (m) */
(PID.TID 0000.0001)                 1.000000000000000E+03
(PID.TID 0000.0001)     ;
(PID.TID 0000.0001) diffKsnow = /* thermal conductivity of snow (W/m/K) */
(PID.TID 0000.0001)                 3.000000000000000E-01
(PID.TID 0000.0001)     ;
(PID.TID 0000.0001) timeSnowAge = /* snow aging time scale   (s) */
(PID.TID 0000.0001)                 4.320000000000000E+06
(PID.TID 0000.0001)     ;
(PID.TID 0000.0001) hNewSnowAge = /* new snow thickness to refresh snow-age by 1/e */
(PID.TID 0000.0001)                 2.000000000000000E-03
(PID.TID 0000.0001)     ;
(PID.TID 0000.0001) albColdSnow = /* albedo of cold (=dry) new snow */
(PID.TID 0000.0001)                 8.500000000000000E-01
(PID.TID 0000.0001)     ;
(PID.TID 0000.0001) albWarmSnow = /* albedo of warm (=wet) new snow */
(PID.TID 0000.0001)                 7.000000000000000E-01
(PID.TID 0000.0001)     ;
(PID.TID 0000.0001) tempSnowAlbL = /* Temp. transition from ColdSnow to WarmSnow Alb. (oC) */
(PID.TID 0000.0001)                -1.000000000000000E+01
(PID.TID 0000.0001)     ;
(PID.TID 0000.0001) albOldSnow = /* albedo of old snow (snowAge >35.d)*/
(PID.TID 0000.0001)                 5.500000000000000E-01
(PID.TID 0000.0001)     ;
(PID.TID 0000.0001) hAlbSnow = /* snow depth for albedo transition */
(PID.TID 0000.0001)                 3.000000000000000E-01
(PID.TID 0000.0001)     ;
- INPHYS: k,SIG, SIGH,   SIGL,   WVI(1),  WVI(2):
  1   0.0750   0.1500  -2.5903   0.8306   0.5757
  2   0.2500   0.3500  -1.3863   1.4427   0.4854
  3   0.5000   0.6500  -0.6931   2.2818   0.5987
  4   0.7750   0.9000  -0.2549   4.9116   0.7344
  5   0.9500   1.0000  -0.0513   0.0000   0.0377
- INPHYS: end setup WVI.
(PID.TID 0000.0001)  AIM_READ_PHYSPARMS: opening data.aimphys
(PID.TID 0000.0001)  OPEN_COPY_DATA_FILE: opening file data.aimphys
(PID.TID 0000.0001) // =======================================================
(PID.TID 0000.0001) // Parameter file "data.aimphys"
(PID.TID 0000.0001) // =======================================================
(PID.TID 0000.0001) ># AIM physics package parameters:
(PID.TID 0000.0001) >
(PID.TID 0000.0001) >C--   AIM interface parameter (namelist AIM_PARAMS):
(PID.TID 0000.0001) >#     aim_useFMsurfBC :: select surface B.C. from Franco Molteni
(PID.TID 0000.0001) >#     aim_useMMsurfFc :: select Monthly Mean surface forcing (e.g., NCEP)
(PID.TID 0000.0001) >#     aim_surfPotTemp :: surf.Temp input file is in Pot.Temp (aim_useMMsurfFc)
(PID.TID 0000.0001) >#     aim_energPrecip :: account for energy of precipitation (snow & rain temp)
(PID.TID 0000.0001) >#     aim_splitSIOsFx :: compute separately Sea-Ice & Ocean surf. Flux
(PID.TID 0000.0001) >#     aim_LandFile :: file name for Land fraction [0-1]
(PID.TID 0000.0001) >#     aim_MMsufx   :: sufix for all Monthly Mean surface forcing files
(PID.TID 0000.0001) >#     aim_MMsufxLength :: Length of sufix (Monthly Mean surf. forc. files)
(PID.TID 0000.0001) >#     aim_albFile  :: file name for Albedo input file   (F.M. surfBC)
(PID.TID 0000.0001) >#     aim_vegFile  :: file name for vegetation fraction (F.M. surfBC)
(PID.TID 0000.0001) >#     aim_sstFile  :: file name for  Sea.Surf.Temp      (F.M. surfBC)
(PID.TID 0000.0001) >#     aim_lstFile  :: file name for Land.Surf.Temp      (F.M. surfBC)
(PID.TID 0000.0001) >#     aim_oiceFile :: file name for Sea Ice fraction    (F.M. surfBC)
(PID.TID 0000.0001) >#     aim_snowFile :: file name for Snow depth          (F.M. surfBC)
(PID.TID 0000.0001) >#     aim_swcFile  :: file name for Soil Water content  (F.M. surfBC)
(PID.TID 0000.0001) >#     aim_dragStrato :: stratospheric-drag damping time scale (s)
(PID.TID 0000.0001) >#     aim_clrSkyDiag :: compute clear-sky radiation for diagnostics
(PID.TID 0000.0001) >#     aim_taveFreq :: Frequency^-1 for time-average output (s)
(PID.TID 0000.0001) >#     aim_diagFreq :: Frequency^-1 for diagnostic output (s)
(PID.TID 0000.0001) >#     aim_tendFreq :: Frequency^-1 for tendencies output (s)
(PID.TID 0000.0001) > &AIM_PARAMS
(PID.TID 0000.0001) >#  aim_useFMsurfBC=.FALSE.,
(PID.TID 0000.0001) >#  aim_useMMsurfFc=.TRUE.,
(PID.TID 0000.0001) >#  aim_surfPotTemp=.TRUE.,
(PID.TID 0000.0001) >   aim_energPrecip=.TRUE.,
(PID.TID 0000.0001) >   aim_splitSIOsFx=.TRUE.,
(PID.TID 0000.0001) >   aim_LandFile= 'landFrc.2f2.bin',
(PID.TID 0000.0001) >   aim_albFile = 'albedo.FM.bin',
(PID.TID 0000.0001) >   aim_vegFile = 'vegetFrc.FM.bin',
(PID.TID 0000.0001) >   aim_sstFile = 'seaSurfT.FM.bin',
(PID.TID 0000.0001) >   aim_lstFile = 'lndSurfT.2f2.bin',
[...]
(PID.TID 0000.0001) %MON surfExpan_Heat_mean          =  -1.4850709125235E-01
(PID.TID 0000.0001) %MON En_Budget_T2PE_mean          =  -3.8457224650733E-01
(PID.TID 0000.0001) // =======================================================
(PID.TID 0000.0001) // End MONITOR dynamic field statistics
(PID.TID 0000.0001) // =======================================================
(PID.TID 0000.0001) // =======================================================
(PID.TID 0000.0001) // Begin MONITOR Land statistics
(PID.TID 0000.0001) // =======================================================
(PID.TID 0000.0001) %MON land_time_sec                =   3.1108500000000E+07
(PID.TID 0000.0001) %MON land_SnwH_ave_G              =   1.0192714965397E-01
(PID.TID 0000.0001) %MON land_SnwH_ave_S              =   1.7908561205269E-01
(PID.TID 0000.0001) %MON land_SnwH_ave_T              =   0.0000000000000E+00
(PID.TID 0000.0001) %MON land_SnwH_ave_N              =   1.4542137994265E-01
(PID.TID 0000.0001) %MON land_SnwH_max_S              =   2.1782996176010E+00
(PID.TID 0000.0001) %MON land_SnwH_max_T              =   0.0000000000000E+00
(PID.TID 0000.0001) %MON land_SnwH_max_N              =   1.3402742346360E+00
(PID.TID 0000.0001) %MON land_Tsrf_ave_G              =   7.5626958954490E-01
(PID.TID 0000.0001) %MON land_Tsrf_ave_S              =   3.0299683183368E+00
(PID.TID 0000.0001) %MON land_Tsrf_ave_T              =   2.2943432010387E+01
(PID.TID 0000.0001) %MON land_Tsrf_ave_N              =  -1.4781155197609E+01
(PID.TID 0000.0001) %MON land_Tsrf_min_S              =  -2.3353770409050E+01
(PID.TID 0000.0001) %MON land_Tsrf_min_T              =   3.1582721111954E+00
(PID.TID 0000.0001) %MON land_Tsrf_min_N              =  -5.6710340994142E+01
(PID.TID 0000.0001) %MON land_Tsrf_max_S              =   3.6966042995476E+01
(PID.TID 0000.0001) %MON land_Tsrf_max_T              =   3.9447109504911E+01
(PID.TID 0000.0001) %MON land_Tsrf_max_N              =   2.2863587577399E+01
(PID.TID 0000.0001) %MON land_Tgr1_ave_G              =   1.2099000739550E+00
(PID.TID 0000.0001) %MON land_Tgr1_ave_S              =   1.2045515118373E+00
(PID.TID 0000.0001) %MON land_Tgr1_ave_T              =   2.2943432010387E+01
(PID.TID 0000.0001) %MON land_Tgr1_ave_N              =  -1.3299229734408E+01
(PID.TID 0000.0001) %MON land_Tgr1_min_S              =  -2.5611363240620E+01
(PID.TID 0000.0001) %MON land_Tgr1_min_T              =   3.1582721111954E+00
(PID.TID 0000.0001) %MON land_Tgr1_min_N              =  -4.8367545682106E+01
(PID.TID 0000.0001) %MON land_Tgr1_max_S              =   3.6966042995476E+01
(PID.TID 0000.0001) %MON land_Tgr1_max_T              =   3.9447109504911E+01
(PID.TID 0000.0001) %MON land_Tgr1_max_N              =   2.2863587577399E+01
(PID.TID 0000.0001) %MON land_Tgr2_ave_G              =   6.1845792495231E+00
(PID.TID 0000.0001) %MON land_Tgr2_ave_S              =  -1.4426358706658E+01
(PID.TID 0000.0001) %MON land_Tgr2_ave_T              =   2.3334448763604E+01
(PID.TID 0000.0001) %MON land_Tgr2_ave_N              =   1.2945713393284E+00
(PID.TID 0000.0001) %MON land_Tgr2_min_S              =  -5.4414291133601E+01
(PID.TID 0000.0001) %MON land_Tgr2_min_T              =  -2.4571789367706E-04
(PID.TID 0000.0001) %MON land_Tgr2_min_N              =  -3.5972172262016E+01
(PID.TID 0000.0001) %MON land_Tgr2_max_S              =   2.6659335892946E+01
(PID.TID 0000.0001) %MON land_Tgr2_max_T              =   3.1460025986586E+01
(PID.TID 0000.0001) %MON land_Tgr2_max_N              =   2.8321702399285E+01
(PID.TID 0000.0001) %MON land_TotEnerg_G              =  -5.4960093311675E+21
(PID.TID 0000.0001) %MON land_TotEnerg_S              =  -4.0524385624212E+21
(PID.TID 0000.0001) %MON land_TotEnerg_T              =   7.5075086091178E+21
(PID.TID 0000.0001) %MON land_TotEnerg_N              =  -8.9510793778642E+21
(PID.TID 0000.0001) %MON land_grdW_ave_G              =   5.3571564177403E-01
(PID.TID 0000.0001) %MON land_grdW_ave_S              =   3.8803506152333E-01
(PID.TID 0000.0001) %MON land_grdW_ave_T              =   4.9144664934131E-01
(PID.TID 0000.0001) %MON land_grdW_ave_N              =   6.1227937174246E-01
(PID.TID 0000.0001) %MON land_grdW_min_S              =   2.0739644366308E-03
(PID.TID 0000.0001) %MON land_grdW_min_T              =   1.2857944119410E-02
(PID.TID 0000.0001) %MON land_grdW_min_N              =   1.9577654182966E-02
(PID.TID 0000.0001) // =======================================================
(PID.TID 0000.0001) // End MONITOR Land statistics
(PID.TID 0000.0001) // =======================================================
(PID.TID 0000.0001) %CHECKPOINT     69130 ckptA
(PID.TID 0000.0001)   Seconds in section "ALL                    [THE_MODEL_MAIN]":
(PID.TID 0000.0001)           User time:   6.3799999999999999
(PID.TID 0000.0001)         System time:  5.99999999999999978E-002
(PID.TID 0000.0001)     Wall clock time:   6.5119299888610840
(PID.TID 0000.0001)          No. starts:           1
(PID.TID 0000.0001)           No. stops:           1
(PID.TID 0000.0001)   Seconds in section "INITIALISE_FIXED       [THE_MODEL_MAIN]":
(PID.TID 0000.0001)           User time:  0.20000000000000001
(PID.TID 0000.0001)         System time:  2.00000000000000004E-002
(PID.TID 0000.0001)     Wall clock time:  0.24233198165893555
(PID.TID 0000.0001)          No. starts:           1
(PID.TID 0000.0001)           No. stops:           1
(PID.TID 0000.0001)   Seconds in section "THE_MAIN_LOOP          [THE_MODEL_MAIN]":
(PID.TID 0000.0001)           User time:   6.1799999999999997
(PID.TID 0000.0001)         System time:  3.99999999999999939E-002
(PID.TID 0000.0001)     Wall clock time:   6.2695560455322266
(PID.TID 0000.0001)          No. starts:           1
(PID.TID 0000.0001)           No. stops:           1
(PID.TID 0000.0001)   Seconds in section "INITIALISE_VARIA    [THE_MAIN_LOOP]":
(PID.TID 0000.0001)           User time:  0.23999999999999999
(PID.TID 0000.0001)         System time:  2.00000000000000004E-002
(PID.TID 0000.0001)     Wall clock time:  0.28052091598510742
(PID.TID 0000.0001)          No. starts:           1
(PID.TID 0000.0001)           No. stops:           1
(PID.TID 0000.0001)   Seconds in section "MAIN LOOP           [THE_MAIN_LOOP]":
(PID.TID 0000.0001)           User time:   5.9399999999999995
(PID.TID 0000.0001)         System time:  1.99999999999999969E-002
(PID.TID 0000.0001)     Wall clock time:   5.9890038967132568
(PID.TID 0000.0001)          No. starts:           1
(PID.TID 0000.0001)           No. stops:           1
(PID.TID 0000.0001)   Seconds in section "MAIN_DO_LOOP        [THE_MAIN_LOOP]":
(PID.TID 0000.0001)           User time:   5.9400000000000013
(PID.TID 0000.0001)         System time:  2.00000000000000039E-002
(PID.TID 0000.0001)     Wall clock time:   5.9889039993286133
(PID.TID 0000.0001)          No. starts:          10
(PID.TID 0000.0001)           No. stops:          10
(PID.TID 0000.0001)   Seconds in section "FORWARD_STEP        [MAIN_DO_LOOP]":
(PID.TID 0000.0001)           User time:   5.9400000000000013
(PID.TID 0000.0001)         System time:  2.00000000000000039E-002
(PID.TID 0000.0001)     Wall clock time:   5.9887180328369141
(PID.TID 0000.0001)          No. starts:          10
(PID.TID 0000.0001)           No. stops:          10
(PID.TID 0000.0001)   Seconds in section "LOAD_FIELDS_DRIVER  [FORWARD_STEP]":
(PID.TID 0000.0001)           User time:  1.99999999999995737E-002
(PID.TID 0000.0001)         System time:   0.0000000000000000
(PID.TID 0000.0001)     Wall clock time:  2.80363559722900391E-002
(PID.TID 0000.0001)          No. starts:          10
(PID.TID 0000.0001)           No. stops:          10
(PID.TID 0000.0001)   Seconds in section "EXTERNAL_FLDS_LOAD [LOAD_FLDS_DRIVER]":
(PID.TID 0000.0001)           User time:   0.0000000000000000
(PID.TID 0000.0001)         System time:   0.0000000000000000
(PID.TID 0000.0001)     Wall clock time:  9.82284545898437500E-005
(PID.TID 0000.0001)          No. starts:          10
(PID.TID 0000.0001)           No. stops:          10
(PID.TID 0000.0001)   Seconds in section "DO_ATMOSPHERIC_PHYS [FORWARD_STEP]":
(PID.TID 0000.0001)           User time:  0.83999999999999986
(PID.TID 0000.0001)         System time:  1.00000000000000019E-002
(PID.TID 0000.0001)     Wall clock time:  0.85423994064331055
(PID.TID 0000.0001)          No. starts:          10
(PID.TID 0000.0001)           No. stops:          10
(PID.TID 0000.0001)   Seconds in section "AIM_DO_PHYSICS [DO_ATMOSPHERIC_PHYS]":
(PID.TID 0000.0001)           User time:  0.83999999999999986
(PID.TID 0000.0001)         System time:  1.00000000000000019E-002
(PID.TID 0000.0001)     Wall clock time:  0.85403347015380859
(PID.TID 0000.0001)          No. starts:          10
(PID.TID 0000.0001)           No. stops:          10
(PID.TID 0000.0001)   Seconds in section "DO_OCEANIC_PHYS     [FORWARD_STEP]":
(PID.TID 0000.0001)           User time:   0.0000000000000000
(PID.TID 0000.0001)         System time:   0.0000000000000000
(PID.TID 0000.0001)     Wall clock time:  4.64916229248046875E-004
(PID.TID 0000.0001)          No. starts:          10
(PID.TID 0000.0001)           No. stops:          10
(PID.TID 0000.0001)   Seconds in section "DYNAMICS            [FORWARD_STEP]":
(PID.TID 0000.0001)           User time:   1.2599999999999989
(PID.TID 0000.0001)         System time:   0.0000000000000000
(PID.TID 0000.0001)     Wall clock time:   1.2560923099517822
(PID.TID 0000.0001)          No. starts:          10
(PID.TID 0000.0001)           No. stops:          10
(PID.TID 0000.0001)   Seconds in section "UPDATE_R_STAR       [FORWARD_STEP]":
(PID.TID 0000.0001)           User time:  7.99999999999991829E-002
(PID.TID 0000.0001)         System time:   0.0000000000000000
(PID.TID 0000.0001)     Wall clock time:  7.80506134033203125E-002
(PID.TID 0000.0001)          No. starts:          10
(PID.TID 0000.0001)           No. stops:          10
(PID.TID 0000.0001)   Seconds in section "UPDATE_CG2D         [FORWARD_STEP]":
(PID.TID 0000.0001)           User time:  5.00000000000007105E-002
(PID.TID 0000.0001)         System time:   0.0000000000000000
(PID.TID 0000.0001)     Wall clock time:  5.11627197265625000E-002
(PID.TID 0000.0001)          No. starts:          10
(PID.TID 0000.0001)           No. stops:          10
(PID.TID 0000.0001)   Seconds in section "SOLVE_FOR_PRESSURE  [FORWARD_STEP]":
(PID.TID 0000.0001)           User time:  0.50000000000000089
(PID.TID 0000.0001)         System time:   0.0000000000000000
(PID.TID 0000.0001)     Wall clock time:  0.50075817108154297
(PID.TID 0000.0001)          No. starts:          10
(PID.TID 0000.0001)           No. stops:          10
(PID.TID 0000.0001)   Seconds in section "MOM_CORRECTION_STEP [FORWARD_STEP]":
(PID.TID 0000.0001)           User time:  0.48999999999999932
(PID.TID 0000.0001)         System time:   0.0000000000000000
(PID.TID 0000.0001)     Wall clock time:  0.48465180397033691
(PID.TID 0000.0001)          No. starts:          10
(PID.TID 0000.0001)           No. stops:          10
(PID.TID 0000.0001)   Seconds in section "SHAP_FILT_UV       [MOM_CORR_STEP]":
(PID.TID 0000.0001)           User time:  0.43999999999999950
(PID.TID 0000.0001)         System time:   0.0000000000000000
(PID.TID 0000.0001)     Wall clock time:  0.44259214401245117
(PID.TID 0000.0001)          No. starts:          10
(PID.TID 0000.0001)           No. stops:          10
(PID.TID 0000.0001)   Seconds in section "INTEGR_CONTINUITY   [FORWARD_STEP]":
(PID.TID 0000.0001)           User time:  0.10999999999999943
(PID.TID 0000.0001)         System time:   0.0000000000000000
(PID.TID 0000.0001)     Wall clock time:  0.12879347801208496
(PID.TID 0000.0001)          No. starts:          10
(PID.TID 0000.0001)           No. stops:          10
(PID.TID 0000.0001)   Seconds in section "CALC_R_STAR         [FORWARD_STEP]":
(PID.TID 0000.0001)           User time:  5.99999999999996092E-002
(PID.TID 0000.0001)         System time:   0.0000000000000000
(PID.TID 0000.0001)     Wall clock time:  5.49230575561523438E-002
(PID.TID 0000.0001)          No. starts:          10
(PID.TID 0000.0001)           No. stops:          10
(PID.TID 0000.0001)   Seconds in section "BLOCKING_EXCHANGES  [FORWARD_STEP]":
(PID.TID 0000.0001)           User time:  4.99999999999998224E-002
(PID.TID 0000.0001)         System time:   0.0000000000000000
(PID.TID 0000.0001)     Wall clock time:  3.63578796386718750E-002
(PID.TID 0000.0001)          No. starts:          20
(PID.TID 0000.0001)           No. stops:          20
(PID.TID 0000.0001)   Seconds in section "THERMODYNAMICS      [FORWARD_STEP]":
(PID.TID 0000.0001)           User time:  0.88999999999999968
(PID.TID 0000.0001)         System time:   0.0000000000000000
(PID.TID 0000.0001)     Wall clock time:  0.88079261779785156
(PID.TID 0000.0001)          No. starts:          10
(PID.TID 0000.0001)           No. stops:          10
(PID.TID 0000.0001)   Seconds in section "TRC_CORRECTION_STEP [FORWARD_STEP]":
(PID.TID 0000.0001)           User time:  0.44000000000000039
(PID.TID 0000.0001)         System time:   0.0000000000000000
(PID.TID 0000.0001)     Wall clock time:  0.45539593696594238
(PID.TID 0000.0001)          No. starts:          10
(PID.TID 0000.0001)           No. stops:          10
(PID.TID 0000.0001)   Seconds in section "SHAP_FILT_TS       [TRC_CORR_STEP]":
(PID.TID 0000.0001)           User time:  0.43000000000000060
(PID.TID 0000.0001)         System time:   0.0000000000000000
(PID.TID 0000.0001)     Wall clock time:  0.43730998039245605
(PID.TID 0000.0001)          No. starts:          10
(PID.TID 0000.0001)           No. stops:          10
(PID.TID 0000.0001)   Seconds in section "DO_STATEVARS_TAVE   [FORWARD_STEP]":
(PID.TID 0000.0001)           User time:  0.33000000000000007
(PID.TID 0000.0001)         System time:   0.0000000000000000
(PID.TID 0000.0001)     Wall clock time:  0.33637595176696777
(PID.TID 0000.0001)          No. starts:          10
(PID.TID 0000.0001)           No. stops:          10
(PID.TID 0000.0001)   Seconds in section "MONITOR             [FORWARD_STEP]":
(PID.TID 0000.0001)           User time:  0.73000000000000043
(PID.TID 0000.0001)         System time:   0.0000000000000000
(PID.TID 0000.0001)     Wall clock time:  0.73389816284179688
(PID.TID 0000.0001)          No. starts:          10
(PID.TID 0000.0001)           No. stops:          10
(PID.TID 0000.0001)   Seconds in section "DO_THE_MODEL_IO     [FORWARD_STEP]":
(PID.TID 0000.0001)           User time:  6.99999999999993960E-002
(PID.TID 0000.0001)         System time:  9.99999999999999500E-003
(PID.TID 0000.0001)     Wall clock time:  8.11572074890136719E-002
(PID.TID 0000.0001)          No. starts:          10
(PID.TID 0000.0001)           No. stops:          10
(PID.TID 0000.0001)   Seconds in section "DO_WRITE_PICKUP     [FORWARD_STEP]":
(PID.TID 0000.0001)           User time:  1.99999999999995737E-002
(PID.TID 0000.0001)         System time:   0.0000000000000000
(PID.TID 0000.0001)     Wall clock time:  2.57418155670166016E-002
(PID.TID 0000.0001)          No. starts:          10
(PID.TID 0000.0001)           No. stops:          10
(PID.TID 0000.0001) // ======================================================
(PID.TID 0000.0001) // Tile <-> Tile communication statistics
(PID.TID 0000.0001) // ======================================================
(PID.TID 0000.0001) // o Tile number: 000001
(PID.TID 0000.0001) //         No. X exchanges =              0
(PID.TID 0000.0001) //            Max. X spins =              0
(PID.TID 0000.0001) //            Min. X spins =     1000000000
(PID.TID 0000.0001) //          Total. X spins =              0
(PID.TID 0000.0001) //            Avg. X spins =       0.00E+00
(PID.TID 0000.0001) //         No. Y exchanges =              0
(PID.TID 0000.0001) //            Max. Y spins =              0
(PID.TID 0000.0001) //            Min. Y spins =     1000000000
(PID.TID 0000.0001) //          Total. Y spins =              0
(PID.TID 0000.0001) //            Avg. Y spins =       0.00E+00
(PID.TID 0000.0001) // o Tile number: 000002
(PID.TID 0000.0001) //         No. X exchanges =              0
(PID.TID 0000.0001) //            Max. X spins =              0
(PID.TID 0000.0001) //            Min. X spins =     1000000000
(PID.TID 0000.0001) //          Total. X spins =              0
(PID.TID 0000.0001) //            Avg. X spins =       0.00E+00
(PID.TID 0000.0001) //         No. Y exchanges =              0
(PID.TID 0000.0001) //            Max. Y spins =              0
(PID.TID 0000.0001) //            Min. Y spins =     1000000000
(PID.TID 0000.0001) //          Total. Y spins =              0
(PID.TID 0000.0001) //            Avg. Y spins =       0.00E+00
(PID.TID 0000.0001) // o Tile number: 000003
(PID.TID 0000.0001) //         No. X exchanges =              0
(PID.TID 0000.0001) //            Max. X spins =              0
(PID.TID 0000.0001) //            Min. X spins =     1000000000
(PID.TID 0000.0001) //          Total. X spins =              0
(PID.TID 0000.0001) //            Avg. X spins =       0.00E+00
(PID.TID 0000.0001) //         No. Y exchanges =              0
(PID.TID 0000.0001) //            Max. Y spins =              0
(PID.TID 0000.0001) //            Min. Y spins =     1000000000
(PID.TID 0000.0001) //          Total. Y spins =              0
(PID.TID 0000.0001) //            Avg. Y spins =       0.00E+00
(PID.TID 0000.0001) // o Tile number: 000004
(PID.TID 0000.0001) //         No. X exchanges =              0
(PID.TID 0000.0001) //            Max. X spins =              0
(PID.TID 0000.0001) //            Min. X spins =     1000000000
(PID.TID 0000.0001) //          Total. X spins =              0
(PID.TID 0000.0001) //            Avg. X spins =       0.00E+00
(PID.TID 0000.0001) //         No. Y exchanges =              0
(PID.TID 0000.0001) //            Max. Y spins =              0
(PID.TID 0000.0001) //            Min. Y spins =     1000000000
(PID.TID 0000.0001) //          Total. Y spins =              0
(PID.TID 0000.0001) //            Avg. Y spins =       0.00E+00
(PID.TID 0000.0001) // o Tile number: 000005
(PID.TID 0000.0001) //         No. X exchanges =              0
(PID.TID 0000.0001) //            Max. X spins =              0
(PID.TID 0000.0001) //            Min. X spins =     1000000000
(PID.TID 0000.0001) //          Total. X spins =              0
(PID.TID 0000.0001) //            Avg. X spins =       0.00E+00
(PID.TID 0000.0001) //         No. Y exchanges =              0
(PID.TID 0000.0001) //            Max. Y spins =              0
(PID.TID 0000.0001) //            Min. Y spins =     1000000000
(PID.TID 0000.0001) //          Total. Y spins =              0
(PID.TID 0000.0001) //            Avg. Y spins =       0.00E+00
(PID.TID 0000.0001) // o Tile number: 000006
(PID.TID 0000.0001) //         No. X exchanges =              0
(PID.TID 0000.0001) //            Max. X spins =              0
(PID.TID 0000.0001) //            Min. X spins =     1000000000
(PID.TID 0000.0001) //          Total. X spins =              0
(PID.TID 0000.0001) //            Avg. X spins =       0.00E+00
(PID.TID 0000.0001) //         No. Y exchanges =              0
(PID.TID 0000.0001) //            Max. Y spins =              0
(PID.TID 0000.0001) //            Min. Y spins =     1000000000
(PID.TID 0000.0001) //          Total. Y spins =              0
(PID.TID 0000.0001) //            Avg. Y spins =       0.00E+00
(PID.TID 0000.0001) // o Thread number: 000001
(PID.TID 0000.0001) //            No. barriers =           6672
(PID.TID 0000.0001) //      Max. barrier spins =              1
(PID.TID 0000.0001) //      Min. barrier spins =              1
(PID.TID 0000.0001) //     Total barrier spins =           6672
(PID.TID 0000.0001) //      Avg. barrier spins =       1.00E+00
PROGRAM MAIN: Execution ended Normally
