(PID.TID 0000.0001) 
(PID.TID 0000.0001) // ======================================================
(PID.TID 0000.0001) //                      MITgcm UV
(PID.TID 0000.0001) //                      =========
(PID.TID 0000.0001) // ======================================================
(PID.TID 0000.0001) // execution environment starting up...
(PID.TID 0000.0001) // Run starting Wed Apr  1 14:19:48 1998
(PID.TID 0000.0001) // on melville.lcs.mit.edu
(PID.TID 0000.0001) // account cnh
(PID.TID 0000.0001) // MITgcm UV Release: $Name:  $
(PID.TID 0000.0001) 
(PID.TID 0000.0001) // =======================================================
(PID.TID 0000.0001) // Execution Environment parameter file "eedata"
(PID.TID 0000.0001) // =======================================================
(PID.TID 0000.0001) ># Example "eedata" file
(PID.TID 0000.0001) ># Lines beginning "#" are comments
(PID.TID 0000.0001) ># nTx - No. threads per process in X
(PID.TID 0000.0001) ># nTy - No. threads per process in Y
(PID.TID 0000.0001) > &EEPARMS
(PID.TID 0000.0001) > useCubedSphereExchange=.TRUE.,
(PID.TID 0000.0001) ># Activate one line below to support 2, 3 or 6 way multi-threading
(PID.TID 0000.0001) > nTx=1,
(PID.TID 0000.0001) >#nTx=2,
(PID.TID 0000.0001) >#nTx=3,
(PID.TID 0000.0001) >#nTx=6,
(PID.TID 0000.0001) > &
(PID.TID 0000.0001) ># Note: Some systems use & as the
(PID.TID 0000.0001) ># namelist terminator. Other systems
(PID.TID 0000.0001) ># use a / character (as shown here).
(PID.TID 0000.0001) 
(PID.TID 0000.0001) // =======================================================
(PID.TID 0000.0001) // Computational Grid Specification ( see files "SIZE.h" )
(PID.TID 0000.0001) //                                  ( and "eedata"       )
(PID.TID 0000.0001) // =======================================================
(PID.TID 0000.0001)      nPx =    1 ; /* No. processes in X */
(PID.TID 0000.0001)      nPy =    1 ; /* No. processes in Y */
(PID.TID 0000.0001)      nSx =    6 ; /* No. tiles in X per process */
(PID.TID 0000.0001)      nSy =    1 ; /* No. tiles in Y per process */
(PID.TID 0000.0001)      sNx =   32 ; /* Tile size in X */
(PID.TID 0000.0001)      sNy =   32 ; /* Tile size in Y */
(PID.TID 0000.0001)      OLx =    3 ; /* Tile overlap distance in X */
(PID.TID 0000.0001)      OLy =    3 ; /* Tile overlap distance in Y */
(PID.TID 0000.0001)      nTx =    1 ; /* No. threads in X per process */
(PID.TID 0000.0001)      nTy =    1 ; /* No. threads in Y per process */
(PID.TID 0000.0001)       Nr =    5 ; /* No. levels in the vertical   */
(PID.TID 0000.0001)       nX =  192 ; /* Total domain size in X ( = nPx*nSx*sNx ) */
(PID.TID 0000.0001)       nY =   32 ; /* Total domain size in Y ( = nPy*nSy*sNy ) */
(PID.TID 0000.0001)   nTiles =    6 ; /* Total no. tiles per process ( = nSx*nSy ) */
(PID.TID 0000.0001)   nProcs =    1 ; /* Total no. processes ( = nPx*nPy ) */
(PID.TID 0000.0001) nThreads =    1 ; /* Total no. threads per process ( = nTx*nTy ) */
(PID.TID 0000.0001) usingMPI =    F ; /* Flag used to control whether MPI is in use */
(PID.TID 0000.0001)                   /*  note: To execute a program with MPI calls */
(PID.TID 0000.0001)                   /*  it must be launched appropriately e.g     */
(PID.TID 0000.0001)                   /*  "mpirun -np 64 ......"                    */
(PID.TID 0000.0001) 
(PID.TID 0000.0001) // ======================================================
(PID.TID 0000.0001) // Mapping of tiles to threads
(PID.TID 0000.0001) // ======================================================
(PID.TID 0000.0001) // -o- Thread   1, tiles (   1:   6,   1:   1)
(PID.TID 0000.0001) 
(PID.TID 0000.0001) // ======================================================
(PID.TID 0000.0001) // Tile <-> Tile connectvity table
(PID.TID 0000.0001) // ======================================================
(PID.TID 0000.0001) // Tile number: 000001 (process no. = 000001)
(PID.TID 0000.0001) //        WEST: Tile = 000006, Process = 000001, Comm = put
(PID.TID 0000.0001) //                bi = 000006, bj = 000001
(PID.TID 0000.0001) //        EAST: Tile = 000002, Process = 000001, Comm = put
(PID.TID 0000.0001) //                bi = 000002, bj = 000001
(PID.TID 0000.0001) //       SOUTH: Tile = 000001, Process = 000001, Comm = put
(PID.TID 0000.0001) //                bi = 000001, bj = 000001
(PID.TID 0000.0001) //       NORTH: Tile = 000001, Process = 000001, Comm = put
(PID.TID 0000.0001) //                bi = 000001, bj = 000001
(PID.TID 0000.0001) // Tile number: 000002 (process no. = 000001)
(PID.TID 0000.0001) //        WEST: Tile = 000001, Process = 000001, Comm = put
(PID.TID 0000.0001) //                bi = 000001, bj = 000001
(PID.TID 0000.0001) //        EAST: Tile = 000003, Process = 000001, Comm = put
(PID.TID 0000.0001) //                bi = 000003, bj = 000001
(PID.TID 0000.0001) //       SOUTH: Tile = 000002, Process = 000001, Comm = put
(PID.TID 0000.0001) //                bi = 000002, bj = 000001
(PID.TID 0000.0001) //       NORTH: Tile = 000002, Process = 000001, Comm = put
(PID.TID 0000.0001) //                bi = 000002, bj = 000001
(PID.TID 0000.0001) // Tile number: 000003 (process no. = 000001)
(PID.TID 0000.0001) //        WEST: Tile = 000002, Process = 000001, Comm = put
(PID.TID 0000.0001) //                bi = 000002, bj = 000001
(PID.TID 0000.0001) //        EAST: Tile = 000004, Process = 000001, Comm = put
(PID.TID 0000.0001) //                bi = 000004, bj = 000001
(PID.TID 0000.0001) //       SOUTH: Tile = 000003, Process = 000001, Comm = put
(PID.TID 0000.0001) //                bi = 000003, bj = 000001
(PID.TID 0000.0001) //       NORTH: Tile = 000003, Process = 000001, Comm = put
(PID.TID 0000.0001) //                bi = 000003, bj = 000001
(PID.TID 0000.0001) // Tile number: 000004 (process no. = 000001)
(PID.TID 0000.0001) //        WEST: Tile = 000003, Process = 000001, Comm = put
(PID.TID 0000.0001) //                bi = 000003, bj = 000001
(PID.TID 0000.0001) //        EAST: Tile = 000005, Process = 000001, Comm = put
(PID.TID 0000.0001) //                bi = 000005, bj = 000001
(PID.TID 0000.0001) //       SOUTH: Tile = 000004, Process = 000001, Comm = put
(PID.TID 0000.0001) //                bi = 000004, bj = 000001
(PID.TID 0000.0001) //       NORTH: Tile = 000004, Process = 000001, Comm = put
(PID.TID 0000.0001) //                bi = 000004, bj = 000001
(PID.TID 0000.0001) // Tile number: 000005 (process no. = 000001)
(PID.TID 0000.0001) //        WEST: Tile = 000004, Process = 000001, Comm = put
(PID.TID 0000.0001) //                bi = 000004, bj = 000001
(PID.TID 0000.0001) //        EAST: Tile = 000006, Process = 000001, Comm = put
(PID.TID 0000.0001) //                bi = 000006, bj = 000001
(PID.TID 0000.0001) //       SOUTH: Tile = 000005, Process = 000001, Comm = put
(PID.TID 0000.0001) //                bi = 000005, bj = 000001
(PID.TID 0000.0001) //       NORTH: Tile = 000005, Process = 000001, Comm = put
(PID.TID 0000.0001) //                bi = 000005, bj = 000001
(PID.TID 0000.0001) // Tile number: 000006 (process no. = 000001)
(PID.TID 0000.0001) //        WEST: Tile = 000005, Process = 000001, Comm = put
(PID.TID 0000.0001) //                bi = 000005, bj = 000001
(PID.TID 0000.0001) //        EAST: Tile = 000001, Process = 000001, Comm = put
(PID.TID 0000.0001) //                bi = 000001, bj = 000001
(PID.TID 0000.0001) //       SOUTH: Tile = 000006, Process = 000001, Comm = put
(PID.TID 0000.0001) //                bi = 000006, bj = 000001
(PID.TID 0000.0001) //       NORTH: Tile = 000006, Process = 000001, Comm = put
(PID.TID 0000.0001) //                bi = 000006, bj = 000001
(PID.TID 0000.0001) 
(PID.TID 0000.0001) // =======================================================
(PID.TID 0000.0001) // Model parameter file "data"
(PID.TID 0000.0001) // =======================================================
(PID.TID 0000.0001) ># ====================
(PID.TID 0000.0001) ># | Model parameters |
(PID.TID 0000.0001) ># ====================
(PID.TID 0000.0001) >#
(PID.TID 0000.0001) ># Continuous equation parameters
(PID.TID 0000.0001) > &PARM01
(PID.TID 0000.0001) > tRef=281.089, 289.321, 307.191, 331.377, 432.413,
(PID.TID 0000.0001) > sRef=5*0.,
(PID.TID 0000.0001) > viscAr=0.E3,
(PID.TID 0000.0001) > viscAh=0.E6,
(PID.TID 0000.0001) > viscA4=0.E17,
(PID.TID 0000.0001) > no_slip_sides=.FALSE.,
(PID.TID 0000.0001) > no_slip_bottom=.FALSE.,
(PID.TID 0000.0001) > diffKhT=0.E3,
(PID.TID 0000.0001) > diffKrT=0.,
(PID.TID 0000.0001) > diffK4T=0.E17,
(PID.TID 0000.0001) > diffKrS=0.E2,
(PID.TID 0000.0001) > diffKhS=0.E3,
(PID.TID 0000.0001) > diffK4S=0.E17,
(PID.TID 0000.0001) > buoyancyRelation='ATMOSPHERIC',
(PID.TID 0000.0001) > eosType='IDEALGAS',
(PID.TID 0000.0001) > Integr_GeoPot=2,
(PID.TID 0000.0001) > gravity=9.81,
(PID.TID 0000.0001) > rhonil=1.0,
(PID.TID 0000.0001) > rhoConst=1.0,
(PID.TID 0000.0001) > rigidLid=.FALSE.,
(PID.TID 0000.0001) > implicitFreeSurface=.TRUE.,
(PID.TID 0000.0001) > exactConserv=.TRUE.,
(PID.TID 0000.0001) > uniformLin_PhiSurf=.FALSE.,
(PID.TID 0000.0001) > staggerTimeStep=.TRUE.,
(PID.TID 0000.0001) > nonHydrostatic=.FALSE.,
(PID.TID 0000.0001) > readBinaryPrec=64,
(PID.TID 0000.0001) > writeBinaryPrec=64,
(PID.TID 0000.0001) > hFacMin=0.2,
(PID.TID 0000.0001) > saltAdvScheme=3,
(PID.TID 0000.0001) > vectorInvariantMomentum=.TRUE.,
(PID.TID 0000.0001) >#useJamartWetPoints=.TRUE.,
(PID.TID 0000.0001) > &
(PID.TID 0000.0001) >
(PID.TID 0000.0001) ># Elliptic solver parameters
(PID.TID 0000.0001) > &PARM02
(PID.TID 0000.0001) > cg2dMaxIters=200,
(PID.TID 0000.0001) >#cg2dTargetResidual=1.E-12,
(PID.TID 0000.0001) > cg2dTargetResWunit=1.E-17,
(PID.TID 0000.0001) > &
(PID.TID 0000.0001) >
(PID.TID 0000.0001) ># Time stepping parameters
(PID.TID 0000.0001) > &PARM03
(PID.TID 0000.0001) > niter0=17280,
(PID.TID 0000.0001) > nTimeSteps=10,
(PID.TID 0000.0001) >#endTime=31104000.,
(PID.TID 0000.0001) > deltaT=450.0,
(PID.TID 0000.0001) > forcing_In_AB=.FALSE.,
(PID.TID 0000.0001) > abEps=0.1,
(PID.TID 0000.0001) > cAdjFreq=0.,
(PID.TID 0000.0001) > pChkptFreq=2592000.0,
(PID.TID 0000.0001) > dumpFreq=2592000.0,
(PID.TID 0000.0001) > taveFreq=2592000.0,
(PID.TID 0000.0001) >#monitorFreq=86400.,
(PID.TID 0000.0001) > monitorFreq=1.,
(PID.TID 0000.0001) > &
(PID.TID 0000.0001) >
(PID.TID 0000.0001) ># Gridding parameters
(PID.TID 0000.0001) > &PARM04
(PID.TID 0000.0001) > usingCartesianGrid=.FALSE.,
(PID.TID 0000.0001) > usingSphericalPolarGrid=.FALSE.,
(PID.TID 0000.0001) > usingCurvilinearGrid=.TRUE.,
(PID.TID 0000.0001) > delR=1.E4, 2.5E4, 3.E4, 2.E4, 1.5E4,
(PID.TID 0000.0001) > Ro_SeaLevel=1.E5,
(PID.TID 0000.0001) > groundAtK1=.TRUE.,
(PID.TID 0000.0001) > rSphere=6370.E3,
(PID.TID 0000.0001) > &
(PID.TID 0000.0001) >
(PID.TID 0000.0001) ># Input datasets
(PID.TID 0000.0001) > &PARM05
(PID.TID 0000.0001) > topoFile='topo.cs.bin',
(PID.TID 0000.0001) > &
(PID.TID 0000.0001) 
(PID.TID 0000.0001) S/R INI_PARMS ; read PARM01 : OK
(PID.TID 0000.0001) S/R INI_PARMS ; read PARM02 : OK
(PID.TID 0000.0001) S/R INI_PARMS ; read PARM03 : OK
(PID.TID 0000.0001) S/R INI_PARMS ; read PARM04 : OK
(PID.TID 0000.0001) S/R INI_PARMS ; read PARM05 : OK
(PID.TID 0000.0001)  MDSREADFIELD: opening global file: LONC.bin
(PID.TID 0000.0001)  MDSREADFIELD: opening global file: LATC.bin
(PID.TID 0000.0001)  MDSREADFIELD: opening global file: DXF.bin
(PID.TID 0000.0001)  MDSREADFIELD: opening global file: DYF.bin
(PID.TID 0000.0001)  MDSREADFIELD: opening global file: RA.bin
(PID.TID 0000.0001)  MDSREADFIELD: opening global file: LONG.bin
(PID.TID 0000.0001)  MDSREADFIELD: opening global file: LATG.bin
(PID.TID 0000.0001)  MDSREADFIELD: opening global file: DXV.bin
(PID.TID 0000.0001)  MDSREADFIELD: opening global file: DYU.bin
(PID.TID 0000.0001)  MDSREADFIELD: opening global file: RAZ.bin
(PID.TID 0000.0001)  MDSREADFIELD: opening global file: DXC.bin
(PID.TID 0000.0001)  MDSREADFIELD: opening global file: DYC.bin
(PID.TID 0000.0001)  MDSREADFIELD: opening global file: RAW.bin
(PID.TID 0000.0001)  MDSREADFIELD: opening global file: RAS.bin
(PID.TID 0000.0001)  MDSREADFIELD: opening global file: DXG.bin
(PID.TID 0000.0001)  MDSREADFIELD: opening global file: DYG.bin
(PID.TID 0000.0001) %MON XC_max                       =   1.7854351589505E+02
(PID.TID 0000.0001) %MON XC_min                       =  -1.7854351589505E+02
(PID.TID 0000.0001) %MON XC_mean                      =   5.2180482157382E-15
(PID.TID 0000.0001) %MON XC_sd                        =   1.0355545336287E+02
(PID.TID 0000.0001) %MON XG_max                       =   1.8000000000000E+02
(PID.TID 0000.0001) %MON XG_min                       =  -1.7708797161002E+02
(PID.TID 0000.0001) %MON XG_mean                      =   1.8796250616675E+00
(PID.TID 0000.0001) %MON XG_sd                        =   1.0410625309932E+02
(PID.TID 0000.0001) %MON DXC_max                      =   3.2375185836900E+05
(PID.TID 0000.0001) %MON DXC_min                      =   1.1142031410131E+05
(PID.TID 0000.0001) %MON DXC_mean                     =   2.8605689051214E+05
(PID.TID 0000.0001) %MON DXC_sd                       =   3.4042087138252E+04
(PID.TID 0000.0001) %MON DXF_max                      =   3.2369947500827E+05
(PID.TID 0000.0001) %MON DXF_min                      =   1.2020820513318E+05
(PID.TID 0000.0001) %MON DXF_mean                     =   2.8605437324820E+05
(PID.TID 0000.0001) %MON DXF_sd                       =   3.4050524252539E+04
(PID.TID 0000.0001) %MON DXG_max                      =   3.2375195872773E+05
(PID.TID 0000.0001) %MON DXG_min                      =   1.0098378008791E+05
(PID.TID 0000.0001) %MON DXG_mean                     =   2.8603818508931E+05
(PID.TID 0000.0001) %MON DXG_sd                       =   3.4140406908005E+04
(PID.TID 0000.0001) %MON DXV_max                      =   3.2380418162750E+05
(PID.TID 0000.0001) %MON DXV_min                      =   8.0152299824136E+04
(PID.TID 0000.0001) %MON DXV_mean                     =   2.8603970633619E+05
(PID.TID 0000.0001) %MON DXV_sd                       =   3.4145142117723E+04
(PID.TID 0000.0001) %MON YC_max                       =   8.7940663871962E+01
(PID.TID 0000.0001) %MON YC_min                       =  -8.7940663871962E+01
(PID.TID 0000.0001) %MON YC_mean                      =   3.7701323544563E-16
(PID.TID 0000.0001) %MON YC_sd                        =   3.8676242969072E+01
(PID.TID 0000.0001) %MON YG_max                       =   9.0000000000000E+01
(PID.TID 0000.0001) %MON YG_min                       =  -9.0000000000000E+01
(PID.TID 0000.0001) %MON YG_mean                      =  -1.2011668255785E-15
(PID.TID 0000.0001) %MON YG_sd                        =   3.9086186579984E+01
(PID.TID 0000.0001) %MON DYC_max                      =   3.2375185836900E+05
(PID.TID 0000.0001) %MON DYC_min                      =   1.1142031410131E+05
(PID.TID 0000.0001) %MON DYC_mean                     =   2.8605689051214E+05
(PID.TID 0000.0001) %MON DYC_sd                       =   3.4042087138252E+04
(PID.TID 0000.0001) %MON DYF_max                      =   3.2369947500827E+05
(PID.TID 0000.0001) %MON DYF_min                      =   1.2020820513318E+05
(PID.TID 0000.0001) %MON DYF_mean                     =   2.8605437324820E+05
(PID.TID 0000.0001) %MON DYF_sd                       =   3.4050524252539E+04
(PID.TID 0000.0001) %MON DYG_max                      =   3.2375195872773E+05
(PID.TID 0000.0001) %MON DYG_min                      =   1.0098378008791E+05
(PID.TID 0000.0001) %MON DYG_mean                     =   2.8603818508931E+05
(PID.TID 0000.0001) %MON DYG_sd                       =   3.4140406908005E+04
(PID.TID 0000.0001) %MON DYU_max                      =   3.2380418162750E+05
(PID.TID 0000.0001) %MON DYU_min                      =   8.0152299824136E+04
(PID.TID 0000.0001) %MON DYU_mean                     =   2.8603970633619E+05
(PID.TID 0000.0001) %MON DYU_sd                       =   3.4145142117723E+04
(PID.TID 0000.0001) %MON RA_max                       =   1.0479260248419E+11
(PID.TID 0000.0001) %MON RA_min                       =   1.4019007022556E+10
(PID.TID 0000.0001) %MON RA_mean                      =   8.2992246709265E+10
(PID.TID 0000.0001) %MON RA_sd                        =   1.7509089299457E+10
(PID.TID 0000.0001) %MON RAW_max                      =   1.0480965274559E+11
(PID.TID 0000.0001) %MON RAW_min                      =   1.2166903467143E+10
(PID.TID 0000.0001) %MON RAW_mean                     =   8.2992246709235E+10
(PID.TID 0000.0001) %MON RAW_sd                       =   1.7481917919657E+10
(PID.TID 0000.0001) %MON RAS_max                      =   1.0480965274559E+11
(PID.TID 0000.0001) %MON RAS_min                      =   1.2166903467143E+10
(PID.TID 0000.0001) %MON RAS_mean                     =   8.2992246709235E+10
(PID.TID 0000.0001) %MON RAS_sd                       =   1.7481917919657E+10
(PID.TID 0000.0001) %MON RAZ_max                      =   1.0484349334619E+11
(PID.TID 0000.0001) %MON RAZ_min                      =   8.8317900612505E+09
(PID.TID 0000.0001) %MON RAZ_mean                     =   8.2992246709234E+10
(PID.TID 0000.0001) %MON RAZ_sd                       =   1.7482297311044E+10
(PID.TID 0000.0001) check_eos: Check the equation of state: Type IDEALG
(PID.TID 0000.0001) rho(35.5 PSU, 3.0 degC, 300. bar) = 1041.83267    -1.00000
(PID.TID 0000.0001) rho(find_rho)                     =    1.00000     0.00000
(PID.TID 0000.0001) rho(find_rho_scalar)              =    1.00000     0.00000
(PID.TID 0000.0001) rho(35.0 PSU,20.0 degC, 200. bar) = 1033.21339    -1.00000
(PID.TID 0000.0001) rho(find_rho)                     =    1.00000     0.00000
(PID.TID 0000.0001) rho(find_rho_scalar)              =    1.00000     0.00000
(PID.TID 0000.0001) rho(35.0 PSU,25.0 degC, 200. bar) = 1031.65423    -1.00000
(PID.TID 0000.0001) rho(find_rho)                     =    1.00000     0.00000
(PID.TID 0000.0001) rho(find_rho_scalar)              =    1.00000     0.00000
(PID.TID 0000.0001) rho(20.0 PSU,20.0 degC, 100. bar) = 1017.72674    -1.00000
(PID.TID 0000.0001) rho(find_rho)                     =    1.00000     0.00000
(PID.TID 0000.0001) rho(find_rho_scalar)              =    1.00000     0.00000
(PID.TID 0000.0001) rho(40.0 PSU,12.0 degC, 800. bar) = 1062.92826    -1.00000
(PID.TID 0000.0001) rho(find_rho)                     =    1.00000     0.00000
(PID.TID 0000.0001) rho(find_rho_scalar)              =    1.00000     0.00000
(PID.TID 0000.0001) rho( 0.0 PSU, 5.0 degC,   0. bar) =  999.96675 20337.80375
(PID.TID 0000.0001) rho(find_rho)                     =    1.00000     0.00000
(PID.TID 0000.0001) rho(find_rho_scalar)              =    1.00000     0.00000
(PID.TID 0000.0001) rho( 0.0 PSU,25.0 degC,   0. bar) =  997.04796 22100.72106
(PID.TID 0000.0001) rho(find_rho)                     =    1.00000     0.00000
(PID.TID 0000.0001) rho(find_rho_scalar)              =    1.00000     0.00000
(PID.TID 0000.0001) rho(35.0 PSU, 5.0 degC,   0. bar) = 1027.67547 22185.93358
(PID.TID 0000.0001) rho(find_rho)                     =    1.00000     0.00000
(PID.TID 0000.0001) rho(find_rho_scalar)              =    1.00000     0.00000
(PID.TID 0000.0001) rho(35.0 PSU,25.0 degC,   0. bar) = 1023.34306 23726.34949
(PID.TID 0000.0001) rho(find_rho)                     =    1.00000     0.00000
(PID.TID 0000.0001) rho(find_rho_scalar)              =    1.00000     0.00000
(PID.TID 0000.0001) rho( 0.0 PSU, 4.0 degC,1000. bar) = 1044.12802 23643.52599
(PID.TID 0000.0001) rho(find_rho)                     =    1.00000     0.00000
(PID.TID 0000.0001) rho(find_rho_scalar)              =    1.00000     0.00000
(PID.TID 0000.0001) rho( 0.0 PSU,22.8 degC,1000. bar) = 1037.90204 25405.09717
(PID.TID 0000.0001) rho(find_rho)                     =    1.00000     0.00000
(PID.TID 0000.0001) rho(find_rho_scalar)              =    1.00000     0.00000
(PID.TID 0000.0001) rho(35.0 PSU, 3.6 degC,1000. bar) = 1069.48914 25577.49819
(PID.TID 0000.0001) rho(find_rho)                     =    1.00000     0.00000
(PID.TID 0000.0001) rho(find_rho_scalar)              =    1.00000     0.00000
(PID.TID 0000.0001) rho(35.0 PSU,22.6 degC,1000. bar) = 1062.53817 27108.94504
(PID.TID 0000.0001) rho(find_rho)                     =    1.00000     0.00000
(PID.TID 0000.0001) rho(find_rho_scalar)              =    1.00000     0.00000
(PID.TID 0000.0001) end check the equation of state
(PID.TID 0000.0001)  MDSREADFIELD: opening global file: topo.cs.bin
INI_P_GROUND: PhiRef/g [m] at Center (integer) and Interface (half-int.) levels:
  K=  0.5  ;  r=  100000.0  ;  phiRef/g=       0.000
  K=  1.0  ;  r=   95000.0  ;  phiRef/g=     418.526
  K=  1.5  ;  r=   90000.0  ;  phiRef/g=    1219.560
  K=  2.0  ;  r=   77500.0  ;  phiRef/g=    2044.053
  K=  2.5  ;  r=   65000.0  ;  phiRef/g=    3664.142
  K=  3.0  ;  r=   50000.0  ;  phiRef/g=    5384.296
  K=  3.5  ;  r=   35000.0  ;  phiRef/g=    7701.142
  K=  4.0  ;  r=   25000.0  ;  phiRef/g=   10200.400
  K=  4.5  ;  r=   15000.0  ;  phiRef/g=   13521.874
  K=  5.0  ;  r=    7500.0  ;  phiRef/g=   17856.056
  K=  5.5  ;  r=       0.0  ;  phiRef/g=   38969.174
(PID.TID 0000.0001) // =======================================================
(PID.TID 0000.0001) // Field Model R_low (ini_masks_etc) at iteration          1
(PID.TID 0000.0001) // CMIN =          1.000000000000000E+32
(PID.TID 0000.0001) // CMAX =         -1.000000000000000E+32
(PID.TID 0000.0001) // CINT =          0.000000000000000E+00
(PID.TID 0000.0001) // SYMBOLS (CMIN->CMAX): -abcdefghijklmnopqrstuvwxyz+
(PID.TID 0000.0001) //                  0.0: .
(PID.TID 0000.0001) // RANGE I (Lo:Hi:Step):(  -2: 195:   1)
(PID.TID 0000.0001) // RANGE J (Lo:Hi:Step):(  35:  -2:  -1)
(PID.TID 0000.0001) // RANGE K (Lo:Hi:Step):(   1:   1:   1)
(PID.TID 0000.0001) // =======================================================
(PID.TID 0000.0001) K =   1
(PID.TID 0000.0001) //                I=7       I=17      I=27      I=31      I=41      I=51      I=61      I=65      I=75      I=85      I=95      I=99      I=109     I=119     I=129     I=133     I=143     I=153     I=163     I=167     I=177     I=187
(PID.TID 0000.0001) // |--J--|**0123456|890123456|890123456|890123450|234567890|234567890|234567890|234567234|678901234|678901234|678901234|678945678|012345678|012345678|012345678|016789012|456789012|456789012|456789012|890123456|890123456|890123456|89012345
(PID.TID 0000.0001) //     35 ....................................................................................................................................................................................................................................
(PID.TID 0000.0001) //     34 ....................................................................................................................................................................................................................................
(PID.TID 0000.0001) //     33 ....................................................................................................................................................................................................................................
(PID.TID 0000.0001) //     32 ....................................................................................................................................................................................................................................
(PID.TID 0000.0001) //     31 ....................................................................................................................................................................................................................................
(PID.TID 0000.0001) //     30 ....................................................................................................................................................................................................................................
(PID.TID 0000.0001) //     29 ....................................................................................................................................................................................................................................
(PID.TID 0000.0001) //     28 ....................................................................................................................................................................................................................................
(PID.TID 0000.0001) //     27 ....................................................................................................................................................................................................................................
(PID.TID 0000.0001) //     26 ....................................................................................................................................................................................................................................
(PID.TID 0000.0001) //     25 ....................................................................................................................................................................................................................................
(PID.TID 0000.0001) //     24 ....................................................................................................................................................................................................................................
(PID.TID 0000.0001) //     23 ....................................................................................................................................................................................................................................
(PID.TID 0000.0001) //     22 ....................................................................................................................................................................................................................................
(PID.TID 0000.0001) //     21 ....................................................................................................................................................................................................................................
(PID.TID 0000.0001) //     20 ....................................................................................................................................................................................................................................
(PID.TID 0000.0001) //     19 ....................................................................................................................................................................................................................................
(PID.TID 0000.0001) //     18 ....................................................................................................................................................................................................................................
(PID.TID 0000.0001) //     17 ....................................................................................................................................................................................................................................
(PID.TID 0000.0001) //     16 ....................................................................................................................................................................................................................................
(PID.TID 0000.0001) //     15 ....................................................................................................................................................................................................................................
(PID.TID 0000.0001) //     14 ....................................................................................................................................................................................................................................
(PID.TID 0000.0001) //     13 ....................................................................................................................................................................................................................................
(PID.TID 0000.0001) //     12 ....................................................................................................................................................................................................................................
(PID.TID 0000.0001) //     11 ....................................................................................................................................................................................................................................
(PID.TID 0000.0001) //     10 ....................................................................................................................................................................................................................................
(PID.TID 0000.0001) //      9 ....................................................................................................................................................................................................................................
(PID.TID 0000.0001) //      8 ....................................................................................................................................................................................................................................
(PID.TID 0000.0001) //      7 ....................................................................................................................................................................................................................................
(PID.TID 0000.0001) //      6 ....................................................................................................................................................................................................................................
(PID.TID 0000.0001) //      5 ....................................................................................................................................................................................................................................
(PID.TID 0000.0001) //      4 ....................................................................................................................................................................................................................................
(PID.TID 0000.0001) //      3 ....................................................................................................................................................................................................................................
(PID.TID 0000.0001) //      2 ....................................................................................................................................................................................................................................
(PID.TID 0000.0001) //      1 ....................................................................................................................................................................................................................................
(PID.TID 0000.0001) //      0 ....................................................................................................................................................................................................................................
(PID.TID 0000.0001) //     -1 ....................................................................................................................................................................................................................................
(PID.TID 0000.0001) //     -2 ....................................................................................................................................................................................................................................
(PID.TID 0000.0001) // =======================================================
(PID.TID 0000.0001) // END OF FIELD                                          =
(PID.TID 0000.0001) // =======================================================
(PID.TID 0000.0001) 
(PID.TID 0000.0001) // =======================================================
(PID.TID 0000.0001) // Field Model Ro_surf (ini_masks_etc) at iteration          1
(PID.TID 0000.0001) // CMIN =          4.782978183284863E+04
(PID.TID 0000.0001) // CMAX =          1.000000000000000E+05
(PID.TID 0000.0001) // CINT =          1.932230302487088E+03
(PID.TID 0000.0001) // SYMBOLS (CMIN->CMAX): -abcdefghijklmnopqrstuvwxyz+
(PID.TID 0000.0001) //                  0.0: .
(PID.TID 0000.0001) // RANGE I (Lo:Hi:Step):(  -2: 195:   1)
(PID.TID 0000.0001) // RANGE J (Lo:Hi:Step):(  35:  -2:  -1)
(PID.TID 0000.0001) // RANGE K (Lo:Hi:Step):(   1:   1:   1)
(PID.TID 0000.0001) // =======================================================
(PID.TID 0000.0001) K =   1
(PID.TID 0000.0001) //                I=7       I=17      I=27      I=31      I=41      I=51      I=61      I=65      I=75      I=85      I=95      I=99      I=109     I=119     I=129     I=133     I=143     I=153     I=163     I=167     I=177     I=187
(PID.TID 0000.0001) // |--J--|**0123456|890123456|890123456|890123450|234567890|234567890|234567890|234567234|678901234|678901234|678901234|678945678|012345678|012345678|012345678|016789012|456789012|456789012|456789012|890123456|890123456|890123456|89012345
(PID.TID 0000.0001) //     35 ...++++++++++++++zy+yxxxxxz+zwwnnnn......smnszzzzzzxxxxwqpoousuwvyyww+++x......++++++++++++xwxzyywuklorsx++++++......++++++++++++++++++++++++++++++++......+++++++++++++++++zxxyz++++++++++......++++++++++++++++++++++++++++++++...
(PID.TID 0000.0001) //     34 ...+++++++++++++++zzxwvwwvz+++onmno......unnw+zzzzzyxwwtlomnsrvvvxyvy+++y......+++++++++++zxyyyyxwulmnnnx++++++......++++++++++++++++++++++++++++++++......+++++++++++++++++xxxwwxwy+++++++......++++++++++++++++++++++++++++++++...
(PID.TID 0000.0001) //     33 ...+++++++++++++++zxrswwwxyzstqssuu......uonx+yzzyyxxwrpslmlquvvtwywx+++z......++++++++++zxxyyyyxwunmnopw++++++......++++++++++++++++++++++++++++++++......+++++++++++++++++zyxwwwwv+++++++......++++++++++++++++++++++++++++++++...
(PID.TID 0000.0001) //     32 ++++++++++++++++++xvwwwwtwxwvptxxyxvooxyxvoonzwwzxxnmmkloppsstttty++xx+xxxvt+++++++++++++yxyyyxxxxvqmnqqu+++++++++++++++++++++++++++++++++++++++++++++++++++++++++++++++++++zyxwwwwvy+++++++++++++++++++++++++++++++++++++++++++++++
(PID.TID 0000.0001) //     31 ++++++++++++++++zvuy+zzwxvzwswxwxyzwpoxyzwpoorsoxxoifmsvvunnsstrwzz+zyzxxz+++++++++++++zzxxxyxyxyxwvqnssy+++++++++++++++++++++++++++++++++++++++++++++++++++++++++++++++++++zyyxwwwwwxy+++++++++++++++++++++++++++++++++++++++++++++
(PID.TID 0000.0001) //     30 +++++++++++++++++ww++++y++++++xwwxzztlwxzztlotussooediolggfdiosuyz++++wx+++++++++++++++zzxxxyzyxyxwwtpuw+++++++++++++++++++++++++++++++++++++++++++++++++++++++++++++++++zzzyyxxxwxxwvw+++++++++++++++++++++++++++++++++++++++++++++
(PID.TID 0000.0001) //     29 +++++++++++++++++xxwvw++++++++wwwxyzzqwxyzzqmoutolkke-aaaacdhmrvyz++++++++++++++++++++zzxwwxy+zyyxxwupsw+++++++++++++++++++++++++++++++++++++++++++++++++++++++++++++++++yyzzyxxxxxxxxxy++++++++++++++++++++++++++++++++++++++++++++
(PID.TID 0000.0001) //     28 ++++++++++++++++vovwxxxyzzzzzxvwwwxyzxwwxyzxonnstnpymbaaaa-bektuyxxy+++++++++++++++++++yxxxxz++zyxxwvprx++++++++++++++++++++++++++++++++++++++++++++++++++++++++++++++++zyyzzyxxxyyyyzyyz+++++z+++++++++++++++++++++++++++++++++++++
(PID.TID 0000.0001) //     27 +++++++++++++++yuwxxxxxwxzzzyxxvvvwxyzvvwxyzwvurppxyyia--bbbcrvwyxwy++++++++++++++++++++zxxyz+++yxxxwuty++++++++++++++++++++++++++++++++++++++++++++++++++++++++++++++++xwyz+zyxxyzzzzzzz+++++z+++++++++++++++++++++++++++++++++++++
(PID.TID 0000.0001) //     26 ++++++++++++++zxxxyxwwwxxyxxxyxxwwwwxzwwwwxzzx+yxxzxxxxmmmohhntwwxww++++++++++++++++++++++yzx++zyxxxxtsy+++++++++++++++++++++++++++++++++++++++++++++++++++++++++++++++ywvy++zyxxyxyzz+++z+++++z++++++++++++++++++++++++++++++++++++
(PID.TID 0000.0001) //     25 ++++++++++++++yyyyyxutvwwwxwxyxw+uwwxz+uwwxzzwx+++zxxxxxzwwroqvxxyvv+++++++++++++++++++++++xz+yyzyxxwssz+++++++++++++++++++++++++++++++++++++++++++++++++++++++++++++++xvuw+++yyxlkltxxyzy++++zy++++++++++++++++++++++++++++++++++++
(PID.TID 0000.0001) //     24 ++++++++++++++yyyyyxwwwwppxwxyxw+pswxy+pswxyzz++++zxxxxx+ywttuxz++++++++++++++++++++++++xz+vy+yzzyxxvtt+++++++++++++++++++++++++++++++++++++++++++++++++zz+++++++++++++wxxzzzzzwifeeeltwyz++++yz++++++++++++++++++++++++++++++++++++
(PID.TID 0000.0001) //     23 ++++++++++++++zyyyyxxvwxxxwwxxxxvxnwwwvxnwwwz++++++xxyx+++zwwwxz+++vy+++++++++++++++++++mqzzxwyy+yyxvtrx++++++++++++++++++++++++++++++++++++++++++++++++zz++++++++++w+zsnyyzzzygdlnzneghsxwy++sxwy++++++++++++++xvvxz+++++++++++++++
(PID.TID 0000.0001) //     22 ++++++++++++++zyyyyxxxxyyxwwwwxwoxnsx+oxnsx++++++++yxy+++++yxxwx+++x++++++++++++++++++++smrzzzxz+zzywvsvxz++++++++++++++++++++++++++++++++++++++++++++++xxyz+++++++++++vqmwzzyvfg++++++wrtuwwzrtuwwz+++++++++++slkiknqv+++++++++++++
(PID.TID 0000.0001) //     21 ++++++++++++++yxxyyyyxxyyxwvwwxpmvx+++mvx+++++++++++wx++++++zyzw+++yz+++++++++++++++++++sklnuxwz+z++wvvqwyz+++++++++++++++++++++++++++++++++++++++++++++xxxxz++++++y++++vvlrwngn++++++++++xvuv++xvuvyy+++w+++++plkikkllt++++++++++++
(PID.TID 0000.0001) //     20 ++++++++++++++xxxyyxxwxxxxwwxxxolquvw+lquvw+++++++++wz++++++z+++++++yy++++++++++++++++z+vkklnvsy+++++uxxx+z+++++++++++++++++++++++++++++++++++++++++++++xxyxxxz++++z+++zy++sms++++++++++++++wv++++wvy++++vvz++xplkiikllq++++++++++++
(PID.TID 0000.0001) //     19 +++++++++++++++xxyyyyyuwwxwwwxxpmpwxy+mpwxy++++++++++x++++++y+++++x+yw+++++++z++++++++w++rmmnws++++++yxyz+++++++++++++++++++++++++++++++++++++++++++++++yyyyywwz+++++++u++++++++++++++++++++++++++++++++++sqx+xsmkiilmtw++++++++++++
(PID.TID 0000.0001) //     18 z++++++++++++++++++++zwwxxxwwvvvtwxy++twxy+++++++++++++++++wwx+++wx+++++++++wv+++zzz++++++wsqz+++++++++z++++++++++++++++++++++++++++++++++++++++++++++++zxyyyxxz+++++wwy+++++++++++++++++++++++++++++++++++wtzxrmlihiklmw+++++++++++
(PID.TID 0000.0001) //     17 z+++++++++++++++++++++yxxyxxwrvptyz+++tyz++++++++++++++++++ywz+zxwwz++z+++++wuxzzyyy++++++++z+++++++++zy++++++++++++++++++++++++++++++++++++++++++++++++yyxyyzzz+++++vv++++++++++++++++++++++++++++++++++++wvvvrmkighiikq+++++++++++
(PID.TID 0000.0001) //     16 z+++++++++++++++++++++yxxyxxvouosz++++sz++++++++++++++++++++wy++yy+vy+zyyyy++yvxz+++++++++++++++++++++wyy++++++++++++++++++++++++++++++++++z++++++++++++xxxyyyyz++++zpy++++++++++++++++++++++++++++++++++++wuooomkkiiiikp+++++++++++
(PID.TID 0000.0001) //     15 yzzzxz+++++++++++++++++xxxxxvqurt+++++t++++++++++++++++++++++wz++z+xx+++ynnp++wrxy++vvx+++zx+++++++++zwxw+++++++++++++++++++++++++++++++++++++++++xxz+++yyxxxyyz++++zw+++++++++++++++++++++++++++++++++++++zvqsvnllkiiklp+++++++++++
(PID.TID 0000.0001) //     14 yyyyxxx++++++++++++++++ywwwwvtttw+++++w+++++++++++++++++++++++yyyz+++++++++p+zwswx+zzwwwx++++++++++++zxwy+++++++++++++++++++++++++++++++++++++++++++wx++xxxwwwxxyzzxnx++++++++++++++++++++++++++++++++++++++vovx+qnmkklmq+++++++++++
(PID.TID 0000.0001) //     13 xyxxxxy++++++++++++++++xuvvvttrsx+++++x+++++++++++++++++++++++++++y+z++++++++zwwvxz+++zyy++++++y++++zzxwxww+++++++++++++++++++++++++++++++++++++++++++++wwvuuuvwwvpnm+++++++++++++++++++++++++++++++++++++++zpvy+zpmlllpw+++++++++++
(PID.TID 0000.0001) //     12 xxwwwy+++++++++++++++++urtvuutuwxz++++xz++++++++++++++++++++++++++++++++z+++ywwwwxzzzzzyy++yx+++y++zxwwwxzwx++++++++++++++++++++++++++++++++z+++++++++++wvqnlkorsrnos+++++++++++++++++++++++++++++++++++++++++++++rnmlmu++++++++++++
(PID.TID 0000.0001) //     11 xwwwwz+++++++++++++++++uuuvvvvvwwz++v+wz++v++++++++++++++++++++++++++zzzy++z+xtwwxzzzzzzz++z++zzzzywwssvy++y++++++++++++++++++++++++++++++++++++++++++++tqmmmlnronu+++++++++++++++++++++++++++++++++++++++++++++++qonnpz++++++++++++
(PID.TID 0000.0001) //     10 wwwwx++++++++++++++++++uvvvvvtvy+++vv++++vv+++++++++++++++++++++++++zxxyyy+z+vwxvxzzzzzzzzzzz+zyxxywuuqw++++++++++++++++++++++++++++++++z+++++++++++++++pnnnnootw+++++++++++++++++++++++++++++++++++++++++++++++++srswx+++++++++++++
(PID.TID 0000.0001) //      9 xwwww++++++++++++++++++xstvvvvw++++rv++++rv++++++++++++++++++++++++zyyxyyyyz+zxyzzzzzzzzzzwxz+zwwxxyyyww++++++++++++++++++++++++++++++++++++++++++++++++usqonrwxxx++++++++++++++++++++++++++++++++++++++++++++++++++++++++++++++++++
(PID.TID 0000.0001) //      8 xwvvy+++++++++++++++++++ruvvvwz++++uz++++uz++++++++++++++++++++++yxxyxxxxyyy+wwz++zzzzzzzxzzzzzxxxxyxxwvyyy+++++++++++++++++++++++++++++++++++++++++++++wsqpnsuz++++++++++++++++++++++++++++++++++++++++++++++++++++++++++++++++++++
(PID.TID 0000.0001) //      7 wwy+++++++++++++++++++++tvvuss+++++w+++++w+++++++++++++++++++++++yxxxxxxxyzz+svs+zzzzzzzzyzzzzzxxxxwwwuwvxxyz+++++z+++++++++++++++++++++++++++yxwxww+w+++yuwxx++++++++++++++++++++++++++++++++++++++++++++++++++++++++++++++++++++++
(PID.TID 0000.0001) //      6 vx++++++++++++++++++++++xwutpt+++++++++++++++++++++++++++++++++++yxxxxxxxz+z+wpt+wwzzzzyxzzzzzzxxxwvtwxxwxw+xz++++xz++++++++++++++++++++y++++zxyzyywy+++++++++++++++++++++++++++++++++++++++++++++++++++++++++++++++++++++++++++++++
(PID.TID 0000.0001) //      5 wy++++++++++++++++++++++zutrp++++++++++++++++++++++++++++++++++++yxxyyyyyz+zxxtqownz++zyxzzzzzzyyxwrvwwxxxw++xy++++xy++++++++++++++++++vw+++yyxyzzzzx+++++++++++++++++++++++++++++++++++++++++++++++++++++++++++++++++++++++++++++++
(PID.TID 0000.0001) //      4 +++++++++++++++++++++++++xxx+++++++++++++++++++++++++++++++++++++yyyzzzzzzyzwwxsnnmz++zyyyyzzywwtuwuvwwyxwx+++xy++++xy++++++++++++++++vn++zxwyyzzzzzz+++++++++++++++++++++++++++++++++++++++++++++++++++++++++++++++++++++++++++++++
(PID.TID 0000.0001) //      3 ++++++++++++++++++++++++++++++++++++++++++++++++++++++++++++++++++++++++zzyywxxsmnszzzzzzxxxxwqpoousuwvyyww+++xt++++xt++++++++++++++++pp++zzzyzzzzyyz+++++++++++++++++++++++++++++++++++++++++++++++++++++++++++++++++++++++++++++++
(PID.TID 0000.0001) //      2 +++++++++++++++++++++++++++++++++++++++++++++++++++++++++++++++++++++++++yyyxyyunnw+zzzzzyxwwtlomnsrvvvxyvy+++yv++++yv+++++++++++++++yn+++++yyz++yyy++++++++++++++++++++++++++++++++++++++++++++++++++++++++++++++++++++++++++++++++
(PID.TID 0000.0001) //      1 +++++++++++++++++++++++++++++++++++++++++++++++++++++++++++++++++++++++++++zzzxuonx+yzzyyxxwrpslmlquvvtwywx+++zxz+++zxz++++++++++++++yn++++yyyyzzzzy+++++++++++++++++++++++++++++++++++++++++++++++++++++++++++++++x++++++w++++++++z
(PID.TID 0000.0001) //      0 ...++++++++++++++++++++++++++++++++......++++++++++++++++++++++++++++++++......voonzwwzxxnmmkloppsstttty++xx+xx......xx++++++++++++++yy++zyyyxxxyzz++......++++++++++++++++++++++++++++++++......+++++++++++++++++zw+++++++yxzz++...
(PID.TID 0000.0001) //     -1 ...++++++++++++++++++++++++++++++++......++++++++++++++++++++++++++++++++......wpoorsoxxoifmsvvunnsstrwzz+zyzxx......xxx+++++++++++++y++++zyyxxxyz+++......++++++++++++++++++++++++++++++++......+++++++++++++++++x+++++++wwzzyyy...
(PID.TID 0000.0001) //     -2 ...++++++++++++++++++++++++++++++++......++++++++++++++++++++++++++++++++......ztlotussooediolggfdiosuyz++++wx+......+zw++++++++++++zz++++zxxxxxyz+++......++++++++++++++++++++++++++++++++......+++++++++++++++++x+++++++wyzzyyz...
(PID.TID 0000.0001) // =======================================================
(PID.TID 0000.0001) // END OF FIELD                                          =
(PID.TID 0000.0001) // =======================================================
(PID.TID 0000.0001) 
(PID.TID 0000.0001) // =======================================================
(PID.TID 0000.0001) // Field hFacC at iteration          1
(PID.TID 0000.0001) // CMIN =          2.000000000000000E-01
(PID.TID 0000.0001) // CMAX =          1.000000000000000E+00
(PID.TID 0000.0001) // CINT =          2.962962962962963E-02
(PID.TID 0000.0001) // SYMBOLS (CMIN->CMAX): -abcdefghijklmnopqrstuvwxyz+
(PID.TID 0000.0001) //                  0.0: .
(PID.TID 0000.0001) // RANGE I (Lo:Hi:Step):(  -2: 195:   1)
(PID.TID 0000.0001) // RANGE J (Lo:Hi:Step):(  35:  -2:  -1)
(PID.TID 0000.0001) // RANGE K (Lo:Hi:Step):(   1:   1:   1)
(PID.TID 0000.0001) // =======================================================
(PID.TID 0000.0001) K =   1
(PID.TID 0000.0001) //                I=7       I=17      I=27      I=31      I=41      I=51      I=61      I=65      I=75      I=85      I=95      I=99      I=109     I=119     I=129     I=133     I=143     I=153     I=163     I=167     I=177     I=187
(PID.TID 0000.0001) // |--J--|**0123456|890123456|890123456|890123450|234567890|234567890|234567890|234567234|678901234|678901234|678901234|678945678|012345678|012345678|012345678|016789012|456789012|456789012|456789012|890123456|890123456|890123456|89012345
(PID.TID 0000.0001) //     35 ...++++++++++++++vpyojigefrxwb-..............xwutrthhgj-.......-.nlad+++h......++++++++++++iajslkd......g++++++......++++++++++++++++++++++++++++++++......+++++++++++++++++tghpuy+++++++++......++++++++++++++++++++++++++++++++...
(PID.TID 0000.0001) //     34 ...+++++++++++++++xsib.dd.v+++..............a+tsuuslfa-..........jl.k+++p......+++++++++++ugknqojd......g++++++......++++++++++++++++++++++++++++++++......+++++++++++++++++hff-cdco+++++++......++++++++++++++++++++++++++++++++...
(PID.TID 0000.0001) //     33 ...+++++++++++++++wd..-bbglt................i+otupoggc...........cp-g+++v......++++++++++xhgknplid......-++++++......++++++++++++++++++++++++++++++++......+++++++++++++++++uogdd--.+++++++......++++++++++++++++++++++++++++++++...
(PID.TID 0000.0001) //     32 ++++++++++++++++++f.cd-d.-j-...fiph...iph....t-bsjf..............mxyfh+jhj..++++++++++++zlflkljijg.......++++++++++++++++++++++++++++++++++++++++++++++++++++++++++++++++++yrmfcbb-.o+++++++++++++++++++++++++++++++++++++++++++++++
(PID.TID 0000.0001) //     31 ++++++++++++++++u..m+ttai.w-.-hcjmt-..jmt-......jg..............buu+vlvehw+++++++++++++wvkgimjkilgb.....m++++++++++++++++++++++++++++++++++++++++++++++++++++++++++++++++++zsonh--cdbdp+++++++++++++++++++++++++++++++++++++++++++++
(PID.TID 0000.0001) //     30 +++++++++++++++++c-++++p++++++g-bhtr..bhtr......................oqx+z+ch+++++++++++++++uuifipunjohd-...d+++++++++++++++++++++++++++++++++++++++++++++++++++++++++++++++++wswoljjibhi-.-+++++++++++++++++++++++++++++++++++++++++++++
(PID.TID 0000.0001) //     29 +++++++++++++++++ff-.bx+++++++---fktx.-fktx.....................mwx+++z+++++++++++++++sskcdiqxsopjfc...d++++++++++++++++++++++++++++++++++++++++++++++++++++++++++++++++xoluumiiedgigfhp++++++++++++++++++++++++++++++++++++++++++++
(PID.TID 0000.0001) //     28 ++++++++++++++++...-iihlwrttuh.-aafkxiaafkxi.......k............phio+++++++++++++++++++qigfjt+zuoigd...f++++++++++++++++++++++++++++++++++++++++++++++++++++++++++++++++wlnvxlkjjoploqqqt+++++t+++++++++++++++++++++++++++++++++++++
(PID.TID 0000.0001) //     27 +++++++++++++++l.-ffjjecjtttphg...cdlw..cdlwc.....emm..........aki-q++++++++++++++++++++tijnv++ypihdb..o+++++++++++++++++++++++++++++++++++++++++++++++++++++++++++++++zhbmvyuniglsvwwwvw+++++w+++++++++++++++++++++++++++++++++++++
(PID.TID 0000.0001) //     26 ++++++++++++++uigjliccdeemjijohf---ahw---ahwvf+lffsikji........bcfab++++++++++++++++++++++orj++wpkjfd..p+++++++++++++++++++++++++++++++++++++++++++++++++++++++++++++++m-.kzzwlijliqsvxxxu++++xu++++++++++++++++++++++++++++++++++++
(PID.TID 0000.0001) //     25 +++++++++++++yonlnof...adbh-goid+.-akt+.-aktvdf+++wfhhhjw--....jiq..+++++++++++++++++++++++grxonrkji-..r+++++++++++++++++++++++++++++++++++++++++++++++++++++++++++++++h..ayyxooi....jilvo++++vo++++++++++++++++++++++++++++++++++++
(PID.TID 0000.0001) //     24 +++++++++++++yoklloh--ca..fbgmi-+..aho+..ahott++++uigghi+pd...jwy++++++++++++++++++++++zis+.kxorulhj...+++++++++++++++++++++++++++++++++++++++++++++++++uw+++++++++++++bjktvxuqc.......amqy+++mqy+++++++++++++++++++++++++++++++++++
(PID.TID 0000.0001) //     23 +++++++++++++yslllkfh.-iii-aghid.j.-bc.j.-bcu++++++ifkd+++q-a-ht+++.m++++++++++++++++++x..vshaqqyqlj...e++++++++++++++++++++++++++++++++++++++++++++++++uvz+++++++++b+v..mmvwrm....s.....fdo++.fdo++++++++++++++g..ew+++++++++++++++
(PID.TID 0000.0001) //     22 +++++++++++++ysonlmijghkmi--adi-.j..f+.j..f++++++++lfk+++++ogj-f+++j++++++++++++++++++++...sxxeuyrsld...jv++++++++++++++++++++++++++++++++++++++++++++++iklx+++++++++++...dvwn...++++++a...-ds...-ds+++++++++++........y++++++++++++
(PID.TID 0000.0001) //     21 +++++++++++++zojjlmmlhilmfb.cch...g+++..g+++++++++++ae+++++ytlqb+++ls+++++++++++++++++++.....jdtxuz+d...dmr+++++++++++++++++++++++++++++++++++++++++++++fgfhu++++++k+++z....a...++++++++++i...++i...qk+++b+++++.........++++++++++++
(PID.TID 0000.0001) //     20 ++++++++++++++gehkojjafejicbggg.....-+....-+++++++++cw++++++txxz++zxkl++++++++++++++++u+.......l+++++.gjhxw+++++++++++++++++++++++++++++++++++++++++++++iilggiv++++w+++ro+x...++++++++++++++a.++++a.q++++..r++g.........++++++++++++
(PID.TID 0000.0001) //     19 ++++++++++++++ziiooono.--gcadgf...cem+..cem++++++++++j++++++o+++++j+pa+++++++u++++++++c+z....-.++++++ojpv+++++++++++++++++++++++++++++++++++++++++++++++pmkkkacvyz+x+++.++++++++++++++++++++++++++++++++++..g+d........-++++++++++++
(PID.TID 0000.0001) //     18 w++++++++++++++++++++u-cdgfdb....-iq++.-iq+++++++++++++++++-cj+++-d+++++++++c.+++vuv++++++-..w++++++++zs++++++++++++++++++++++++++++++++++++++++++++++++ujlnnjfry++++--l+++++++++++++++++++++++++++++++++++b.vg.........-+++++++++++
(PID.TID 0000.0001) //     17 s+++++++++++++++++++++kfhkkh-....ow+++.ow++++++++++++++++++p-w+wj-dv++u+++++-.fwxpok++++++++v++++++++ztk++++++++++++++++++++++++++++++++++++++++++++++++nkjpqssuz++zx..++++++++++++++++++++++++++++++++++++a.............+++++++++++
(PID.TID 0000.0001) //     16 wzy+++++++++++++++++++qfgkig.....w++++.w++++++++++++++++++++-kz+ll+.l+wqopn++m.dsy+++++++++++++++++++ycnn++++++++++++++++++++++++++++++++++u++++++++++++jiilolqxz+++u.q++++++++++++++++++++++++++++++++++++c.............+++++++++++
(PID.TID 0000.0001) //     15 osruht+++++++++++++++++jefge.....+++++.++++++++++++++++++++++bw++x+fi++zn...++c.iozz..iz++wh+++++++++ucf-+++++++++++++++++++++++++++++++++++++++++jjt+++oljijkluy+++s-+++++++++++++++++++++++++++++++++++++v.............+++++++++++
(PID.TID 0000.0001) //     14 lomofgh++++++++++++++++n----....-+++++-+++++++++++++++++++++++oppw+++++++++.+td.bjyurcc-e++++++++++z+ui-k+++++++++++++++++++++++++++++++++++++++++++ch++hggdddgiluve.h++++++++++++++++++++++++++++++++++++++...iz........+++++++++++
(PID.TID 0000.0001) //     13 jnfgfhm++++++++++++++++g........f+++++f+++++++++++++++++++++++++++mysy+++++++t--.iuyyywql++++++p++yyvtg-i-c+++++++++++++++++++++++++++++++++++++++++++++db.....-a....+++++++++++++++++++++++++++++++++++++++x..m+v......d+++++++++++
(PID.TID 0000.0001) //     12 jhcd-p+++++++++++++++++........-hr++++hr++++++++++++++++++++++++++++++++xz+zpadbdgtvwwtqn++mgx+xl+zugd--gs-h++++++++++++++++++++++++++++++++v+++++++++++-............+++++++++++++++++++++++++++++++++++++++++++++......++++++++++++
(PID.TID 0000.0001) //     11 i-bdcu+++++++++++++++++........-dr++.+dr++.++++++++++++++++++++++++++rvsqz+w+i.bdesrtvtuvyzvzzvruup-a...p+xo++++++++++++++++++++++++++++++++++++++++++++...........+++++++++++++++++++++++++++++++++++++++++++++++.....w++++++++++++
(PID.TID 0000.0001) //     10 b-b-dy+++++++++++++++++........nx++..+x++..+++++++++++++++++++++++++whinqpxv+.-g.frsrrttutwrxxtnijpc...-+z++++++++++++++++++++++++++++++r+++++++++++++++........-x++++++++++++++++++++++++++++++++++++++++++++++++...-j+++++++++++++
(PID.TID 0000.0001) //      9 hc--c++++++++++++++++++i......-y+++..++++..++++++++++++++++++++++zyuqljklont+wjlvrtsrsutusdexxq-deioomdd++++++++++++++++++++++++++++++++z+++++++++++++++......cijh++++++++++++++++++++++++++++++++++++++++++++++++++++++++++++++++++
(PID.TID 0000.0001) //      8 id..o+++++++++++++++++++.....-sx+++.u++++.u++++++++++++++++++++++nehkjiggmop+--t+xtssuutsgrwwwtfefimif-.nnn++++++++++++++++++++++++++++x++++++++++++++++d......v++++++++++++++++++++++++++++++++++++++++++++++++++++++++++++++++++++
(PID.TID 0000.0001) //      7 -bo+++++++++++++++++++++......y++++c+++++c+++++++++++++++++++++++mgfihffgout+...+wvttrstrlwwwuthhhhdb-.-.fjpu+++++u+++++++++++++++++++++++++++nhadbbzc+++m.-gg++++++++++++++++++++++++++++++++++++++++++++++++++++++++++++++++++++++
(PID.TID 0000.0001) //      6 .d++++++++++++++++++++++f-....+++++++++++++++++++++++++++++++++++mhgihffiuyv+-..+bbutwvnerwwwwuhihd..-di-ia+hv++++hv++++++++++++++++++++k+++xrjlrmkcly++++++++++++++++++++++++++++++++++++++++++++++++++++++++++++++++++++++++++++++
(PID.TID 0000.0001) //      5 -p++++++++++++++++++++++s....++++++++++++++++++++++++++++++++++++oijknmmqvyvgh...-.wzzulisuvwvslkg-..-bjhib++jl++++jl++++++++++++++++++.d+++mlhntruvj+++++++++++++++++++++++++++++++++++++++++++++++++++++++++++++++++++++++++++++++
(PID.TID 0000.0001) //      4 +++++++++++++++++++++++++fee+++++++++++++++++++++++++++++++++++++okntuttttnv-cf....x++tmpqnsup--..-..--nece+++el++++el++++++++++++++++..++tfdnprttwwu+++++++++++++++++++++++++++++++++++++++++++++++++++++++++++++++++++++++++++++++
(PID.TID 0000.0001) //      3 +++++++++++++++++++++++++++++++++++++++++++++++++++++++++++++++++++++++zurmnbji....xwutrthhgj-.......-.nlad+++h.++++h.++++++++++++++++..+zwvtptvvvnpx+++++++++++++++++++++++++++++++++++++++++++++++++++++++++++++++++++++++++++++++
(PID.TID 0000.0001) //      2 +++++++++++++++++++++++++++++++++++++++++++++++++++++++++++++++++++++++++qpphmp...a+tsuuslfa-..........jl.k+++p.++++p.+++++++++++++++n.++++xnouyynmpy++++++++++++++++++++++++++++++++++++++++++++++++++++++++++++++++++++++++++++++z
(PID.TID 0000.0001) //      1 +++++++++++++++++++++++++++++++++++++++++++++++++++++++++++++++++++++++++zyxtth...i+otupoggc...........cp-g+++vjw+++vjw++++++++++++++p.++zzpomouvtrqz++++++++++++++++++++++++++++++++++++++++++++++++++++++++++++++h++++++cy+++++++u
(PID.TID 0000.0001) //      0 ...++++++++++++++++++++++++++++++++......++++++++++++++++++++++++++++++++..........t-bsjf..............mxyfh+jh......hh++++++++++++++on++xqqlggiqtu++......++++++++++++++++++++++++++++++++......+++++++++++++++++tc++++++zljuxyz...
(PID.TID 0000.0001) //     -1 ...++++++++++++++++++++++++++++++++......++++++++++++++++++++++++++++++++......-......jg..............buu+vlveh......jeh+++++++++++++qz+++snkgffmtz++......++++++++++++++++++++++++++++++++......+++++++++++++++++j+++++++bcvwppq...
(PID.TID 0000.0001) //     -2 ...++++++++++++++++++++++++++++++++......++++++++++++++++++++++++++++++++......r......................oqx+z+ch+......+vcz+++++++++++uw++++vijiffmt+++......++++++++++++++++++++++++++++++++......+++++++++++++++++j+++++++bkuwnmr...
(PID.TID 0000.0001) // =======================================================
(PID.TID 0000.0001) // END OF FIELD                                          =
(PID.TID 0000.0001) // =======================================================
(PID.TID 0000.0001) 
(PID.TID 0000.0001) // =======================================================
(PID.TID 0000.0001) // Field hFacW at iteration          1
(PID.TID 0000.0001) // CMIN =          2.000000000000000E-01
(PID.TID 0000.0001) // CMAX =          1.000000000000000E+00
(PID.TID 0000.0001) // CINT =          2.962962962962963E-02
(PID.TID 0000.0001) // SYMBOLS (CMIN->CMAX): -abcdefghijklmnopqrstuvwxyz+
(PID.TID 0000.0001) //                  0.0: .
(PID.TID 0000.0001) // RANGE I (Lo:Hi:Step):(  -2: 195:   1)
(PID.TID 0000.0001) // RANGE J (Lo:Hi:Step):(  35:  -2:  -1)
(PID.TID 0000.0001) // RANGE K (Lo:Hi:Step):(   1:   1:   1)
(PID.TID 0000.0001) // =======================================================
(PID.TID 0000.0001) K =   1
(PID.TID 0000.0001) //                I=7       I=17      I=27      I=31      I=41      I=51      I=61      I=65      I=75      I=85      I=95      I=99      I=109     I=119     I=129     I=133     I=143     I=153     I=163     I=167     I=177     I=187
(PID.TID 0000.0001) // |--J--|**0123456|890123456|890123456|890123450|234567890|234567890|234567890|234567234|678901234|678901234|678901234|678945678|012345678|012345678|012345678|016789012|456789012|456789012|456789012|890123456|890123456|890123456|89012345
(PID.TID 0000.0001) //     35 ...++++++++++++++vppojigeefrwb-...............wutrrhhgg-..........laad++h......++++++++++++iaajlkd.......g++++++.....+++++++++++++++++++++++++++++++++.....+++++++++++++++++tgghpuy+++++++++.....+++++++++++++++++++++++++++++++++..
(PID.TID 0000.0001) //     34 ...+++++++++++++++xsib..d..v++...............atssuslfa-...........j..k++p......+++++++++++uggknojd.......g++++++.....+++++++++++++++++++++++++++++++++.....+++++++++++++++++hff--ccco+++++++.....+++++++++++++++++++++++++++++++++..
(PID.TID 0000.0001) //     33 ...+++++++++++++++wd...-bbgl.................iootpoggc............c--g++vj.....++++++++++xhggknlid.......-++++++.....+++++++++++++++++++++++++++++++++.....+++++++++++++++++uogdd--..+++++++.....+++++++++++++++++++++++++++++++++..
(PID.TID 0000.0001) //     32 ++++++++++++++++++f..c--..--....fih...fih.....--bjf...............mxffhjhh..++++++++++++zlffkkjiig........+++++++++++++++++++++++++++++++++++++++++++++++++++++++++++++++++yrmfcbb-..o++++++++++++++++++++++++++++++++++++++++++++++
(PID.TID 0000.0001) //     31 ++++++++++++++++u...mttaa..-..-ccjm-..cjm-.......g...............buuvlleehw++++++++++++wvkggijjiigb......m+++++++++++++++++++++++++++++++++++++++++++++++++++++++++++++++++zsonh---cbbdp++++++++++++++++++++++++++++++++++++++++++++
(PID.TID 0000.0001) //     30 +++++++++++++++++c--+++pp+++++g--bhr..-bhr.......................oqxzzcch++++++++++++++uuiffipnjjhd-....d++++++++++++++++++++++++++++++++++++++++++++++++++++++++++++++++wssoljjibbh-..-++++++++++++++++++++++++++++++++++++++++++++
(PID.TID 0000.0001) //     29 +++++++++++++++++ff-..bx++++++----fkt.--fkt......................mwx++zz++++++++++++++sskccdiqsoojfc....d+++++++++++++++++++++++++++++++++++++++++++++++++++++++++++++++xollumiieddggffhp+++++p+++++++++++++++++++++++++++++++++++++
(PID.TID 0000.0001) //     28 ++++++++++++++++....-ihhlrrtth..-aafki-aafki.....................hhio++++++++++++++++++qigffjtzuoigd....f+++++++++++++++++++++++++++++++++++++++++++++++++++++++++++++++wllnvlkjjjolloqqqt++++qt++++++++++++++++++++++++++++++++++++
(PID.TID 0000.0001) //     27 +++++++++++++++l..-ffjeccjttphg....cdl...cdlc......em...........ai--q+++++++++++++++++++tiijnv+ypihdb...o++++++++++++++++++++++++++++++++++++++++++++++++++++++++++++++zhbbmvunigglsvwwvvw++++vw++++++++++++++++++++++++++++++++++++
(PID.TID 0000.0001) //     26 ++++++++++++++uiggjicccdeejiijhf----ah----ahvfflfffiiji.........bcaab+++++++++++++++++++++oojj+wpkjfd...p++++++++++++++++++++++++++++++++++++++++++++++++++++++++++++++m-..kzwliijiiqsvxxuu+++xuu+++++++++++++++++++++++++++++++++++
(PID.TID 0000.0001) //     25 +++++++++++++yonllnf....abb--gidd..-akd..-aktddf++wffhhhj--.....ii...++++++++++++++++++++++ggronnkji-...r+++++++++++++++++++++++++++++++++++++++++++++++s++++++++++++++h...ayxooi.....iiloo+++loo+++++++++++++++++++++++++++++++++++
(PID.TID 0000.0001) //     24 +++++++++++++yokkllh---a...bbgi--...ah-...ahott+++uiggghipd....jwy+++++++++++++++++++++ziis..koorlhh....++++++++++++++++++++++++++++++++++++++++++++++++suw++++++++++++bbjktvuqc........amqy++amqy++++++++++++++++++++++++++++++++++
(PID.TID 0000.0001) //     23 +++++++++++++yslllkff..-ii--aghd....-b....-bcu+++++iffdd++q----ht++..m+++++++++++++++++x...shaaqqqlj....e+++++++++++++++++++++++++++++++++++++++++++++++kuvz++++++++bbv...mmvrm...........ddo+..ddo+++++++++++++g...ew++++++++++++++
(PID.TID 0000.0001) //     22 +++++++++++++ysonlliigghki---ad-.....f.....f+++++++lffk++++ogg--f++jj+++++++++++++++++++....sxeeurrld....jv+++++++++++++++++++++++++++++++++++++++++++++ciklx++++++++++....dvn....+++++a....-d....-ds++++++++++.........y+++++++++++
(PID.TID 0000.0001) //     21 +++++++++++++zojjjlmlhhilfb..cc....g++...g++++++++++aae++++ytllbb++lls++++++++++++++++++......ddtuuzd....dmr++++++++++++++++++++++++++++++++++++++++++++dfffhu+++++kk++z.........+++++++++i...++i....kk++bb++++..........+++++++++++
(PID.TID 0000.0001) //     20 ++++++++++++++geehkjjaaeeicbbgg......-.....-++++++++ccw+++++ttxxz+zxkkl+++++++++++++++uu........l++++..ghhww++++++++++++++++++++++++++++++++++++++++++++iiigggiv+++ww++roox....+++++++++++++a.++++a..q+++...r+g..........+++++++++++
(PID.TID 0000.0001) //     19 x+++++++++++++ziiioonn..--caadf....cem...cem+++++++++jj+++++oo++++jjpaa++++++uu+++++++ccz.......+++++ojjpv++++++++++++++++++++++++++++++++++++++++++++++pmkkkaacvyzxx++..+++++++++++++++++++++++++++++++++...gd.........-+++++++++++
(PID.TID 0000.0001) //     18 ow+++++++++++++++++++u--cdfdb.....-iq+..-iq++++++++++++++++--cj++--d++++++++c..++vuuv+++++-...w+++++++zss+++++++++++++++++++++++++++++++++++++++++++++++ujjlnjffry+++---l++++++++++++++++++++++++++++++++++b..g..........-++++++++++
(PID.TID 0000.0001) //     17 ls++++++++++++++++++++kffhkh-.....ow++..ow+++++++++++++++++p--wwj--dv+uu++++-..fwpokk+++++++vv+++++++ztkk+++++++++++++++++++++++++++++++++++++++++++++++nkjjpqssuz+zx...+++++++++++++++++++++++++++++++++++a..............++++++++++
(PID.TID 0000.0001) //     16 uwyy++++++++++++++++++qffgig......w+++..w+++++++++++++++++++--kzlll..lwqoonn-m..dsy++++++++++++++++++yccnn+++++++++++++++++++++++++++++++++uu+++++++++++jiiilllqxz++u..q+++++++++++++++++++++++++++++++++++c..............++++++++++
(PID.TID 0000.0001) //     15 oorrhht++++++++++++++++jeefe......++++..+++++++++++++++++++++bbw+xxffi+zn....+c..ioz...iz+whh++++++++ucc--++++++++++++++++++++++++++++++++++++++++jjjt++oljiijkluy++s--++++++++++++++++++++++++++++++++++++v..............++++++++++
(PID.TID 0000.0001) //     14 llmmffgh+++++++++++++++n----.....-++++.-++++++++++++++++++++++ooppw++++++++.btd..bjurcc--e+++++++++zzui--k++++++++++++++++++++++++++++++++++++++++++cch+hggddddgilue..h+++++++++++++++++++++++++++++++++++++....i.........++++++++++
(PID.TID 0000.0001) //     13 ijffffhm+++++++++++++++g.........f++++.f++++++++++++++++++++++++++mmssy+++++xt--..iuyywqll+++++pp+yyvtg----c++++++++++++++++++++++++++++++++++++++++++++db......-.....++++++++++++++++++++++++++++++++++++++x...mv.......d++++++++++
(PID.TID 0000.0001) //     12 ihcc--p++++++++++++++++.........-hr+++-hr+++++++++++++++++++++++++++++++xxzzpaabbdgtvwtqnn+mggxxllzugd---g--h+++++h+++++++++++++++++++++++++vv++++++++++-.............++++++++++++++++++++++++++++++++++++++++++++.......+++++++++++
(PID.TID 0000.0001) //     11 e--bccu++++++++++++++++.........-dr+..-dr+..+++++++++++++++++++++++++rrsqqzw+i..bderrtttuvyvvzvrrup--....pxoo+++++o+++++++++++++++++++++++++++++++++++++............++++++++++++++++++++++++++++++++++++++++++++++......w+++++++++++
(PID.TID 0000.0001) //     10 b----dy++++++++++++++++.........nx+...nx+...++++++++++++++++++++++++whhinppv+..-..frrrrttttrrxtniijc....-zz+++++++++++++++++++++++++++++rr++++++++++++++.........-x+++++++++++++++++++++++++++++++++++++++++++++++....-j++++++++++++
(PID.TID 0000.0001) //      9 gc---c+++++++++++++++++i.......-y++...y++...+++++++++++++++++++++zyuqljjklnn+wjjlrrsrrsttsddexq--deiomddd+++++++++++++++++++++++++++++++zz++++++++++++++.......cihh+++++++++++++++++++++++++++++++++++++++++++++++++++++++++++++++++
(PID.TID 0000.0001) //      8 id...o++++++++++++++++++......-sx++..ux++..u+++++++++++++++++++++neehjigggmo+---txtsssutsggrwwtfeefiif-..nnn+++++++++++++++++++++++++++xx+++++++++++++++d.......v+++++++++++++++++++++++++++++++++++++++++++++++++++++++++++++++++++
(PID.TID 0000.0001) //      7 --bo++++++++++++++++++++.......y+++cc++++cc++++++++++++++++++++++mgffhfffgot+....wvttrrsrllwwuthhhhdb-....fjpu++++pu++++++++++++++++++++++++++nhaabbbcc++m..-gg+++++++++++++++++++++++++++++++++++++++++++++++++++++++++++++++++++++
(PID.TID 0000.0001) //      6 ..d+++++++++++++++++++++f-.....++++++++++++++++++++++++++++++++++mhgghfffiuv+-...bbbttvneerwwwuhhhd...-d--aahhv+++hhv+++++++++++++++++++kk++xrjjlmkccly+++++++++++++++++++++++++++++++++++++++++++++++++++++++++++++++++++++++++++++
(PID.TID 0000.0001) //      5 --p+++++++++++++++++++++s.....+++++++++++++++++++++++++++++++++++oiijkmmmqvv-g......wzuliisuvvslkg-...-bhhbb+jjl+++jjl+++++++++++++++++..d++mlhhnrrujj++++++++++++++++++++++++++++++++++++++++++++++++++++++++++++++++++++++++++++++
(PID.TID 0000.0001) //      4 p++++++++++++++++++++++++feee++++++++++++++++++++++++++++++++++++okkntttttnn--c.....x+tmmpnnsp--......--ecce++eel+++eel+++++++++++++++...+tfddnprttwuu++++++++++++++++++++++++++++++++++++++++++++++++++++++++++++++++++++++++++++++
(PID.TID 0000.0001) //      3 +++++++++++++++++++++++++++++++++++++++++++++++++++++++++++++++++++++++zurmm-bi.....wutrrhhgg-..........laad++h..+++h..+++++++++++++++...zwvtpptvvnnpx++++++++++++++++++++++++++++++++++++++++++++++++++++++++++++++++++++++++++++++
(PID.TID 0000.0001) //      2 +++++++++++++++++++++++++++++++++++++++++++++++++++++++++++++++++++++++++qppfhm....atssuslfa-...........j..k++p..+++p..++++++++++++++n..+++xnnouynmmpy+++++++++++++++++++++++++++++++++++++++++++++++++++++++++++++++++++++++++++++z
(PID.TID 0000.0001) //      1 +++++++++++++++++++++++++++++++++++++++++++++++++++++++++++++++++++++++++zyxkth....iootpoggc............c--g++vjjw++vjjw+++++++++++++p..+zzpommoutrqqz+++++++++++++++++++++++++++++++++++++++++++++++++++++++++++++hh+++++ccy++++++u
(PID.TID 0000.0001) //      0 ...+++++++++++++++++++++++++++++++++.....++++++++++++++++++++++++++++++++z..........--bjf...............mxffhjhh.....hhh+++++++++++++onn+xqqlgggiqtu++.....+++++++++++++++++++++++++++++++++.....+++++++++++++++++tcc+++++zljjuxyz..
(PID.TID 0000.0001) //     -1 ...+++++++++++++++++++++++++++++++++.....++++++++++++++++++++++++++++++++y.....-.......g...............buuvlleeh.....jeeh++++++++++++qqz++snkgfffmtz++.....+++++++++++++++++++++++++++++++++.....+++++++++++++++++jj++++++bbcvpppq..
(PID.TID 0000.0001) //     -2 ...+++++++++++++++++++++++++++++++++.....++++++++++++++++++++++++++++++++x.....r.......................oqxzzcch+.....+vccz++++++++++uuw+++viiifffmt+++.....+++++++++++++++++++++++++++++++++.....+++++++++++++++++jj++++++bbkunmmr..
(PID.TID 0000.0001) // =======================================================
(PID.TID 0000.0001) // END OF FIELD                                          =
(PID.TID 0000.0001) // =======================================================
(PID.TID 0000.0001) 
(PID.TID 0000.0001) // =======================================================
(PID.TID 0000.0001) // Field hFacS at iteration          1
(PID.TID 0000.0001) // CMIN =          2.000000000000000E-01
(PID.TID 0000.0001) // CMAX =          1.000000000000000E+00
(PID.TID 0000.0001) // CINT =          2.962962962962963E-02
(PID.TID 0000.0001) // SYMBOLS (CMIN->CMAX): -abcdefghijklmnopqrstuvwxyz+
(PID.TID 0000.0001) //                  0.0: .
(PID.TID 0000.0001) // RANGE I (Lo:Hi:Step):(  -2: 195:   1)
(PID.TID 0000.0001) // RANGE J (Lo:Hi:Step):(  35:  -2:  -1)
(PID.TID 0000.0001) // RANGE K (Lo:Hi:Step):(   1:   1:   1)
(PID.TID 0000.0001) // =======================================================
(PID.TID 0000.0001) K =   1
(PID.TID 0000.0001) //                I=7       I=17      I=27      I=31      I=41      I=51      I=61      I=65      I=75      I=85      I=95      I=99      I=109     I=119     I=129     I=133     I=143     I=153     I=163     I=167     I=177     I=187
(PID.TID 0000.0001) // |--J--|**0123456|890123456|890123456|890123450|234567890|234567890|234567890|234567234|678901234|678901234|678901234|678945678|012345678|012345678|012345678|016789012|456789012|456789012|456789012|890123456|890123456|890123456|89012345
(PID.TID 0000.0001) //     35 ...++++++++++++++vpsib.dd.rxwb...............xtstrshfa-..........jl.d+++h......+++++++++++ugajqljd......g++++++......++++++++++++++++++++++++++++++++......+++++++++++++++++hff-cdco+++++++......++++++++++++++++++++++++++++++++...
(PID.TID 0000.0001) //     34 ...+++++++++++++++wd...bb.lt................a+osupogfa...........cl.g+++p......++++++++++xhgknplid......-++++++......++++++++++++++++++++++++++++++++......+++++++++++++++++hff-c--.+++++++......++++++++++++++++++++++++++++++++...
(PID.TID 0000.0001) //     33 ++++++++++++++++++f...-b.-j-.................t-bsjf..............cp-fh+jhj..++++++++++++zlfgkljiid.......++++++++++++++++++++++++++++++++++++++++++++++++++++++++++++++++++yrmfcb--.o+++++++++++++++++++++++++++++++++++++++++++++++
(PID.TID 0000.0001) //     32 ++++++++++++++++u...cd-a..j-...cimh...imh.......jg...............muyfhvehj..+++++++++++wvkfikjjijg.......++++++++++++++++++++++++++++++++++++++++++++++++++++++++++++++++++yrmfc---.bdp+++++++++++++++++++++++++++++++++++++++++++++
(PID.TID 0000.0001) //     31 ++++++++++++++++u..m+ttai.w-.-g-bht-..bht-......................bqu+vlcehw+++++++++++++uuifimjkilgb.....m++++++++++++++++++++++++++++++++++++++++++++++++++++++++++++++++wswoljh--cd-.-+++++++++++++++++++++++++++++++++++++++++++++
(PID.TID 0000.0001) //     30 +++++++++++++++++c--.bxp++++++---fkr..-fkr......................mqx+z+ch++++++++++++++sskcdipunjohd-...d++++++++++++++++++++++++++++++++++++++++++++++++++++++++++++++++xoluoliiebgi-.-p++++++++++++++++++++++++++++++++++++++++++++
(PID.TID 0000.0001) //     29 ++++++++++++++++...-.bhlwrttuh.--afkx.-afkx.....................mhio++z+++++++++++++++sqicdiqxsooifc...d++++++++++++++++++++++++++++++++++++++++++++++++++++++++++++++++wlluuliiedgigfhpt+++++t+++++++++++++++++++++++++++++++++++++
(PID.TID 0000.0001) //     28 +++++++++++++++l...-iiecjrttph....cdli..cdli.......k............kh-o+++++++++++++++++++qigfjt+zuoigd...f+++++++++++++++++++++++++++++++++++++++++++++++++++++++++++++++zhbmvxlkiglploqqqt+++++t+++++++++++++++++++++++++++++++++++++
(PID.TID 0000.0001) //     27 ++++++++++++++ui.-ffccdcemjijhg...-ahw..-ahwc.....eik..........acf-b++++++++++++++++++++tijnj++wpihdb..o+++++++++++++++++++++++++++++++++++++++++++++++++++++++++++++++m-.kvyuligliqsvwvwu++++wu++++++++++++++++++++++++++++++++++++
(PID.TID 0000.0001) //     26 +++++++++++++yoigjlf...adbh-gohd-.-aht-.-ahtvdflffsfhhh........bcf..++++++++++++++++++++++ogjxonpkjf-..p+++++++++++++++++++++++++++++++++++++++++++++++++++++++++++++++h..ayywlii....jilvo++++vo++++++++++++++++++++++++++++++++++++
(PID.TID 0000.0001) //     25 +++++++++++++yokllof...a..f-gmi-+..aho+..ahotdf+++ufgghiw--....jiq..+++++++++++++++++++zis+.kxonrkhi...r++++++++++++++++++++++++++++++++++++++++++++++++uw+++++++++++++b..avxuoc.......amoy+++moy+++++++++++++++++++++++++++++++++++
(PID.TID 0000.0001) //     24 +++++++++++++yokllkf-.-a..-aghi-...-bc...-bctt++++uifgdi+pd...hty++.m++++++++++++++++++x..v.haoqulhj...e++++++++++++++++++++++++++++++++++++++++++++++++uvz+++++++++b+v..kmvwrm..........fdo++.fdo++++++++++++++g..ew+++++++++++++++
(PID.TID 0000.0001) //     23 +++++++++++++yslllkfh.-iii--adi-.j..bc.j..bcu++++++ifkd+++q-a--f+++.m++++++++++++++++++x...shaeqyqlj....jv++++++++++++++++++++++++++++++++++++++++++++++iklx++++++++b+v...dvwn.....s.......-ds...-ds+++++++++++........y++++++++++++
(PID.TID 0000.0001) //     22 +++++++++++++yojjlmijghkmf-.ach.....f+....f++++++++lae+++++ogj-b+++js+++++++++++++++++++.....jdtxrsld...dmr+++++++++++++++++++++++++++++++++++++++++++++fgfhu++++++k+++.....a....++++++a............qk+++b+++++.........++++++++++++
(PID.TID 0000.0001) //     21 +++++++++++++zgehkmjjafejfb.ccg.....-+....-+++++++++ae+++++ytlqb++zlkl++++++++++++++++u+.......lxuz+d...dmr+++++++++++++++++++++++++++++++++++++++++++++fgfggiv++++k+++r........++++++++++i...++i...qk+++..r++g.........++++++++++++
(PID.TID 0000.0001) //     20 ++++++++++++++gehkojja.--gcadgf.....-+....-+++++++++cj++++++oxxz++jxka+++++++u++++++++c+.......l+++++.gjhxw+++++++++++++++++++++++++++++++++++++++++++++iikggacvyz+w+++.o+x...++++++++++++++a.++++a.q++++...g+d.........++++++++++++
(PID.TID 0000.0001) //     19 w+++++++++++++ziiooono.--gcab.....cem+..cem++++++++++j+++++-cj+++-d+pa++++++c.+++vuv++c+z....-.++++++ojpv+++++++++++++++++++++++++++++++++++++++++++++++pjkkkacryz+x+--.++++++++++++++++++++++++++++++++++...vd.........-+++++++++++
(PID.TID 0000.0001) //     18 s++++++++++++++++++++u-cdgfd-....-iq++.-iq+++++++++++++++++--j+wj-dv++u+++++-.fwxpok++++++-..w+++++++ztk++++++++++++++++++++++++++++++++++++++++++++++++njjnnjfry++zx..l+++++++++++++++++++++++++++++++++++a.............+++++++++++
(PID.TID 0000.0001) //     17 szy+++++++++++++++++++kfgkig.....ow+++.ow++++++++++++++++++p-kzwj-d.l+uqopn+-..dspok++++++++v++++++++yckn++++++++++++++++++++++++++++++++++u++++++++++++jiilolquz++zu..++++++++++++++++++++++++++++++++++++a.............+++++++++++
(PID.TID 0000.0001) //     16 osruht++++++++++++++++qfefge.....w++++.w++++++++++++++++++++-bw+ll+.i+wqn...+m..iozz..iz++wh+++++++++ucf-++++++++++++++++++++++++++++++++++u++++++jjt+++jiiijkluy+++s.q++++++++++++++++++++++++++++++++++++c.............+++++++++++
(PID.TID 0000.0001) //     15 lomofgh++++++++++++++++j----.....+++++.++++++++++++++++++++++boppw+fi++zn...+tc.bjyu..c-e+wh+++++++z+uc--+++++++++++++++++++++++++++++++++++++++++jjch++hggdddgiluve.-+++++++++++++++++++++++++++++++++++++v.............+++++++++++
(PID.TID 0000.0001) //     14 jnfgfgh++++++++++++++++g........-+++++-+++++++++++++++++++++++oppwmysy+++++.+t-..iuurcc-e++++++p++yyvtg-i-c+++++++++++++++++++++++++++++++++++++++++ch++db.....-a....h++++++++++++++++++++++++++++++++++++++...iz........+++++++++++
(PID.TID 0000.0001) //     13 jhcd-hm++++++++++++++++.........fr++++fr++++++++++++++++++++++++++mysy++xz+zpa--.gtvwwtql++mgx+pl+yugd--g--h++++++++++++++++++++++++++++++++v+++++++++++-............+++++++++++++++++++++++++++++++++++++++x..m+v......d+++++++++++
(PID.TID 0000.0001) //     12 i-bd-p+++++++++++++++++........-dr++.+dr++.++++++++++++++++++++++++++rvsqz+wpa.bdesrtvtqnyzmgxvrlup-a...gs-h++++++++++++++++++++++++++++++++v+++++++++++.............+++++++++++++++++++++++++++++++++++++++++++++......++++++++++++
(PID.TID 0000.0001) //     11 b-b-cu+++++++++++++++++........-dr+..+dr+..+++++++++++++++++++++++++whinqpxv+..b.errrrttutwrxxtnijp-....pzxo++++++++++++++++++++++++++++r+++++++++++++++...........+++++++++++++++++++++++++++++++++++++++++++++++.....w++++++++++++
(PID.TID 0000.0001) //     10 b---cy+++++++++++++++++........nx++..+x++..++++++++++++++++++++++zyuqhiklont+.-g.frsrrttusdexxq-deic...-+z++++++++++++++++++++++++++++++r+++++++++++++++........-h++++++++++++++++++++++++++++++++++++++++++++++++...-j+++++++++++++
(PID.TID 0000.0001) //      9 hc..c++++++++++++++++++i......-x+++..++++..++++++++++++++++++++++nehkjiggmnp+--lvrtsrsutsgdewwq-deimif-.nnn++++++++++++++++++++++++++++xz+++++++++++++++.......ijh++++++++++++++++++++++++++++++++++++++++++++++++++++++++++++++++++
(PID.TID 0000.0001) //      8 -b..o+++++++++++++++++++......sx+++.u++++.u++++++++++++++++++++++mefihffgmop+...+wtssrstrgrwwutfefhdb-...fjpu+++++u++++++++++++++++++++x++++++nhadbbzc++d......v++++++++++++++++++++++++++++++++++++++++++++++++++++++++++++++++++++
(PID.TID 0000.0001) //      7 .bo+++++++++++++++++++++......y++++c+++++c+++++++++++++++++++++++mgfihffgout+...+bbttrsnelwwwuthhhd..-.-.faphv++++hv++++++++++++++++++++k+++xrjhadbblc+++m.-gg++++++++++++++++++++++++++++++++++++++++++++++++++++++++++++++++++++++
(PID.TID 0000.0001) //      6 .d++++++++++++++++++++++f.....+++++++++++++++++++++++++++++++++++mhgihffiuyvg-...-.utwuleruvwvshig-..-bi-ia+hjl+++hjl++++++++++++++++++.d+++mlhlrmkcjy++++++++++++++++++++++++++++++++++++++++++++++++++++++++++++++++++++++++++++++
(PID.TID 0000.0001) //      5 -p++++++++++++++++++++++s....++++++++++++++++++++++++++++++++++++oijknmmqtnv-c.....wzztliqnsup--..-..--jecb++jel+++jel++++++++++++++++..d+tfdlhntruvj+++++++++++++++++++++++++++++++++++++++++++++++++++++++++++++++++++++++++++++++
(PID.TID 0000.0001) //      4 +++++++++++++++++++++++++fee+++++++++++++++++++++++++++++++++++++okntutttrmn-cf....xwutmphhgj-.......-.nead+++e.++++e.++++++++++++++++..+ztfdnprttnpu+++++++++++++++++++++++++++++++++++++++++++++++++++++++++++++++++++++++++++++++
(PID.TID 0000.0001) //      3 +++++++++++++++++++++++++++++++++++++++++++++++++++++++++++++++++++++++zuqmnbji....xtstrshfa-..........jl.d+++h.++++h.+++++++++++++++n..+zwvnotvvnmpx++++++++++++++++++++++++++++++++++++++++++++++++++++++++++++++++++++++++++++++z
(PID.TID 0000.0001) //      2 +++++++++++++++++++++++++++++++++++++++++++++++++++++++++++++++++++++++++qpphmh...a+osupogfa...........cl.g+++p.w+++p.w++++++++++++++n.++zzpnmouvnmpy++++++++++++++++++++++++++++++++++++++++++++++++++++++++++++++h++++++cy+++++++u
(PID.TID 0000.0001) //      1 +++++++++++++++++++++++++++++++++++++++++++++++++++++++++++++++++++++++++zyxr-.....t-bsjf..............cp-fh+jhhh++jhhh++++++++++++++o.++xqplggiqtrqz+++++++++++++++++++++++++++++++++++++++++++++++++++++++++++++tc++++++cljuxyzzqr
(PID.TID 0000.0001) //      0 ...++++++++++++++++++++++++++++++++......++++++++++++++++++++++++++++++++.............jg...............muyfhveh......heh+++++++++++++on++xqnkgffmtu++......++++++++++++++++++++++++++++++++......+++++++++++++++++jc++++++bcjuppq...
(PID.TID 0000.0001) //     -1 ...++++++++++++++++++++++++++++++++......++++++++++++++++++++++++++++++++......-......................bqu+vlceh......jecz+++++++++++uqz+++sijgffmtz++......++++++++++++++++++++++++++++++++......+++++++++++++++++j+++++++bcuwnmq...
(PID.TID 0000.0001) //     -2 ...++++++++++++++++++++++++++++++++......++++++++++++++++++++++++++++++++......r......................mqx+z+ch+......hlcz++++++++la+uw++y+rhjiffmt+++......++++++++++++++++++++++++++++++++......+++++++++++++++++j+++++++bkrtnmr...
(PID.TID 0000.0001) // =======================================================
(PID.TID 0000.0001) // END OF FIELD                                          =
(PID.TID 0000.0001) // =======================================================
(PID.TID 0000.0001) 
(PID.TID 0000.0001) %MON fCori_max                    =   1.4535016908525E-04
(PID.TID 0000.0001) %MON fCori_min                    =  -1.4535016908525E-04
(PID.TID 0000.0001) %MON fCori_mean                   =   8.5365039215472E-22
(PID.TID 0000.0001) %MON fCori_sd                     =   8.3972192788621E-05
(PID.TID 0000.0001) %MON fCoriG_max                   =   1.4544410433286E-04
(PID.TID 0000.0001) %MON fCoriG_min                   =  -1.4544410433286E-04
(PID.TID 0000.0001) %MON fCoriG_mean                  =   9.9796700966398E-22
(PID.TID 0000.0001) %MON fCoriG_sd                    =   8.4860812167727E-05
(PID.TID 0000.0001)  PACKAGES_BOOT: opening data.pkg
(PID.TID 0000.0001)  OPEN_COPY_DATA_FILE: opening file data.pkg
(PID.TID 0000.0001) // =======================================================
(PID.TID 0000.0001) // Parameter file "data.pkg"
(PID.TID 0000.0001) // =======================================================
(PID.TID 0000.0001) ># Packages
(PID.TID 0000.0001) > &PACKAGES
(PID.TID 0000.0001) > useAIM=.TRUE.
(PID.TID 0000.0001) > useSHAP_FILT=.TRUE.
(PID.TID 0000.0001) >#useAIM=.FALSE.
(PID.TID 0000.0001) > &
(PID.TID 0000.0001) 
(PID.TID 0000.0001)  PACKAGES_BOOT: finished reading data.pkg
(PID.TID 0000.0001)  SHAP_FILT_READPARMS: opening data.shap
(PID.TID 0000.0001)  OPEN_COPY_DATA_FILE: opening file data.shap
(PID.TID 0000.0001) // =======================================================
(PID.TID 0000.0001) // Parameter file "data.shap"
(PID.TID 0000.0001) // =======================================================
(PID.TID 0000.0001) ># Shapiro Filter parameters
(PID.TID 0000.0001) > &SHAP_PARM01
(PID.TID 0000.0001) > shap_filt_uvStar=.FALSE.,
(PID.TID 0000.0001) > shap_filt_TrStagg=.TRUE.,
(PID.TID 0000.0001) > Shap_funct=2,
(PID.TID 0000.0001) > nShapT=0,
(PID.TID 0000.0001) > nShapUV=4,
(PID.TID 0000.0001) > nShapTrPhys=4,
(PID.TID 0000.0001) > nShapUVPhys=4,
(PID.TID 0000.0001) >#Shap_TrLength=115000.,
(PID.TID 0000.0001) >#Shap_uvLength=140000.,
[...]
(PID.TID 0000.0001)                    cg2d_init_res =    1.24605306183845E+04
(PID.TID 0000.0001)                       cg2d_iters =    16
(PID.TID 0000.0001)                         cg2d_res =    7.51428111313459E-11
(PID.TID 0000.0001) // =======================================================
(PID.TID 0000.0001) // Begin MONITOR dynamic field statistics
(PID.TID 0000.0001) // =======================================================
(PID.TID 0000.0001) %MON time_tsnumber                =                 17289
(PID.TID 0000.0001) %MON time_secondsf                =   7.7800500000000E+06
(PID.TID 0000.0001) %MON dynstat_eta_max              =   2.9963394867347E+03
(PID.TID 0000.0001) %MON dynstat_eta_min              =  -4.9079295974873E+03
(PID.TID 0000.0001) %MON dynstat_eta_mean             =  -4.9309580577081E-13
(PID.TID 0000.0001) %MON dynstat_eta_sd               =   1.0320571935599E+03
(PID.TID 0000.0001) %MON dynstat_eta_del2             =   8.7826916327248E+01
(PID.TID 0000.0001) %MON dynstat_uvel_max             =   5.9239561922532E+01
(PID.TID 0000.0001) %MON dynstat_uvel_min             =  -6.2813159268415E+01
(PID.TID 0000.0001) %MON dynstat_uvel_mean            =   1.4164181871970E+00
(PID.TID 0000.0001) %MON dynstat_uvel_sd              =   1.1825112514024E+01
(PID.TID 0000.0001) %MON dynstat_uvel_del2            =   9.4850846706285E-01
(PID.TID 0000.0001) %MON dynstat_vvel_max             =   7.3797802942515E+01
(PID.TID 0000.0001) %MON dynstat_vvel_min             =  -5.8183723883429E+01
(PID.TID 0000.0001) %MON dynstat_vvel_mean            =   1.3847077164818E+00
(PID.TID 0000.0001) %MON dynstat_vvel_sd              =   1.2006219388414E+01
(PID.TID 0000.0001) %MON dynstat_vvel_del2            =   9.0056048307053E-01
(PID.TID 0000.0001) %MON dynstat_wvel_max             =   1.3952692861093E+00
(PID.TID 0000.0001) %MON dynstat_wvel_min             =  -1.1406369502410E+00
(PID.TID 0000.0001) %MON dynstat_wvel_mean            =  -5.5499732196422E-06
(PID.TID 0000.0001) %MON dynstat_wvel_sd              =   1.1586493289620E-01
(PID.TID 0000.0001) %MON dynstat_wvel_del2            =   3.0948354607468E-02
(PID.TID 0000.0001) %MON dynstat_theta_max            =   4.9364510055799E+02
(PID.TID 0000.0001) %MON dynstat_theta_min            =   2.4419616694672E+02
(PID.TID 0000.0001) %MON dynstat_theta_mean           =   3.3135134426264E+02
(PID.TID 0000.0001) %MON dynstat_theta_sd             =   4.8594615187389E+01
(PID.TID 0000.0001) %MON dynstat_theta_del2           =   8.5700476656650E-01
(PID.TID 0000.0001) %MON dynstat_salt_max             =   1.7545638364124E+01
(PID.TID 0000.0001) %MON dynstat_salt_min             =  -6.1641249417674E-01
(PID.TID 0000.0001) %MON dynstat_salt_mean            =   2.2640467394046E+00
(PID.TID 0000.0001) %MON dynstat_salt_sd              =   3.2562313590833E+00
(PID.TID 0000.0001) %MON dynstat_salt_del2            =   1.6744009186811E-01
(PID.TID 0000.0001) %MON advcfl_uvel_max              =   1.5826500047818E-01
(PID.TID 0000.0001) %MON advcfl_vvel_max              =   2.0275554785462E-01
(PID.TID 0000.0001) %MON advcfl_wvel_max              =   2.5114847149968E-02
(PID.TID 0000.0001) %MON advcfl_W_hf_max              =   1.1573907950671E-01
(PID.TID 0000.0001) %MON ke_max                       =   2.9023152221578E+03
(PID.TID 0000.0001) %MON ke_mean                      =   1.4327512151249E+02
(PID.TID 0000.0001) %MON ke_volint                    =   7.0503276086291E+21
(PID.TID 0000.0001) %MON ke_volmean                   =   1.4286579633397E+02
(PID.TID 0000.0001) %MON ke_vol                       =   4.9349303958998E+19
(PID.TID 0000.0001) %MON surf_Corr_theta_mean         =  -1.0292869083025E-04
(PID.TID 0000.0001) %MON surf_Corr_salt_mean          =  -6.9471635307897E-04
(PID.TID 0000.0001) %MON surf_Corr_Heat_mean          =  -1.4457510841647E-01
(PID.TID 0000.0001) %MON En_Budget_T2PE_mean          =   2.1802741582169E+00
(PID.TID 0000.0001) // =======================================================
(PID.TID 0000.0001) // End MONITOR dynamic field statistics
(PID.TID 0000.0001) // =======================================================
 cg2d: Sum(rhs),rhsMax =   2.10621351470763E-08  2.13880066398753E+04
(PID.TID 0000.0001)                    cg2d_init_res =    1.24716466159030E+04
(PID.TID 0000.0001)                       cg2d_iters =    16
(PID.TID 0000.0001)                         cg2d_res =    7.54197814761552E-11
(PID.TID 0000.0001) // =======================================================
(PID.TID 0000.0001) // Begin MONITOR dynamic field statistics
(PID.TID 0000.0001) // =======================================================
(PID.TID 0000.0001) %MON time_tsnumber                =                 17290
(PID.TID 0000.0001) %MON time_secondsf                =   7.7805000000000E+06
(PID.TID 0000.0001) %MON dynstat_eta_max              =   2.9967039843610E+03
(PID.TID 0000.0001) %MON dynstat_eta_min              =  -4.9080533184688E+03
(PID.TID 0000.0001) %MON dynstat_eta_mean             =  -4.6357957842696E-16
(PID.TID 0000.0001) %MON dynstat_eta_sd               =   1.0320390931968E+03
(PID.TID 0000.0001) %MON dynstat_eta_del2             =   8.7820804586343E+01
(PID.TID 0000.0001) %MON dynstat_uvel_max             =   5.9421761184495E+01
(PID.TID 0000.0001) %MON dynstat_uvel_min             =  -6.2808464542548E+01
(PID.TID 0000.0001) %MON dynstat_uvel_mean            =   1.4169464333378E+00
(PID.TID 0000.0001) %MON dynstat_uvel_sd              =   1.1824174319842E+01
(PID.TID 0000.0001) %MON dynstat_uvel_del2            =   9.4868953153348E-01
(PID.TID 0000.0001) %MON dynstat_vvel_max             =   7.3717135232913E+01
(PID.TID 0000.0001) %MON dynstat_vvel_min             =  -5.8184671302989E+01
(PID.TID 0000.0001) %MON dynstat_vvel_mean            =   1.3847649353779E+00
(PID.TID 0000.0001) %MON dynstat_vvel_sd              =   1.2006440154431E+01
(PID.TID 0000.0001) %MON dynstat_vvel_del2            =   9.0076496694807E-01
(PID.TID 0000.0001) %MON dynstat_wvel_max             =   1.4039211191745E+00
(PID.TID 0000.0001) %MON dynstat_wvel_min             =  -1.1394361827333E+00
(PID.TID 0000.0001) %MON dynstat_wvel_mean            =  -5.2225765927450E-06
(PID.TID 0000.0001) %MON dynstat_wvel_sd              =   1.1588541172660E-01
(PID.TID 0000.0001) %MON dynstat_wvel_del2            =   3.0961300962777E-02
(PID.TID 0000.0001) %MON dynstat_theta_max            =   4.9363916632652E+02
(PID.TID 0000.0001) %MON dynstat_theta_min            =   2.4423457823087E+02
(PID.TID 0000.0001) %MON dynstat_theta_mean           =   3.3135172121782E+02
(PID.TID 0000.0001) %MON dynstat_theta_sd             =   4.8594028002640E+01
(PID.TID 0000.0001) %MON dynstat_theta_del2           =   8.5709108718907E-01
(PID.TID 0000.0001) %MON dynstat_salt_max             =   1.7545249222906E+01
(PID.TID 0000.0001) %MON dynstat_salt_min             =  -6.1603948180986E-01
(PID.TID 0000.0001) %MON dynstat_salt_mean            =   2.2641917738366E+00
(PID.TID 0000.0001) %MON dynstat_salt_sd              =   3.2563769392053E+00
(PID.TID 0000.0001) %MON dynstat_salt_del2            =   1.6745757825941E-01
(PID.TID 0000.0001) %MON advcfl_uvel_max              =   1.5798551415438E-01
(PID.TID 0000.0001) %MON advcfl_vvel_max              =   2.0258912037311E-01
(PID.TID 0000.0001) %MON advcfl_wvel_max              =   2.5270580145141E-02
(PID.TID 0000.0001) %MON advcfl_W_hf_max              =   1.1570546617246E-01
(PID.TID 0000.0001) %MON ke_max                       =   2.9080753424945E+03
(PID.TID 0000.0001) %MON ke_mean                      =   1.4326692758910E+02
(PID.TID 0000.0001) %MON ke_volint                    =   7.0499545520403E+21
(PID.TID 0000.0001) %MON ke_volmean                   =   1.4285823682332E+02
(PID.TID 0000.0001) %MON ke_vol                       =   4.9349303958998E+19
(PID.TID 0000.0001) %MON surf_Corr_theta_mean         =   2.0095756024671E-04
(PID.TID 0000.0001) %MON surf_Corr_salt_mean          =  -5.6924728731528E-04
(PID.TID 0000.0001) %MON surf_Corr_Heat_mean          =  -1.0560460284325E-01
(PID.TID 0000.0001) %MON En_Budget_T2PE_mean          =   2.1693054765315E+00
(PID.TID 0000.0001) // =======================================================
(PID.TID 0000.0001) // End MONITOR dynamic field statistics
(PID.TID 0000.0001) // =======================================================
(PID.TID 0000.0001)   Seconds in section "ALL                    [THE_MODEL_MAIN]":
(PID.TID 0000.0001)           User time:  13.6199999
(PID.TID 0000.0001)         System time:  0.290000003
(PID.TID 0000.0001)     Wall clock time:  13.9174761
(PID.TID 0000.0001)          No. starts: 1
(PID.TID 0000.0001)           No. stops: 1
(PID.TID 0000.0001)   Seconds in section "INITIALISE_FIXED       [THE_MODEL_MAIN]":
(PID.TID 0000.0001)           User time:  0.689999998
(PID.TID 0000.0001)         System time:  0.0899999999
(PID.TID 0000.0001)     Wall clock time:  0.776164055
(PID.TID 0000.0001)          No. starts: 1
(PID.TID 0000.0001)           No. stops: 1
(PID.TID 0000.0001)   Seconds in section "THE_MAIN_LOOP          [THE_MODEL_MAIN]":
(PID.TID 0000.0001)           User time:  12.6799999
(PID.TID 0000.0001)         System time:  0.160000011
(PID.TID 0000.0001)     Wall clock time:  12.8508639
(PID.TID 0000.0001)          No. starts: 1
(PID.TID 0000.0001)           No. stops: 1
(PID.TID 0000.0001)   Seconds in section "INITIALISE_VARIA    [THE_MAIN_LOOP]":
(PID.TID 0000.0001)           User time:  0.319999993
(PID.TID 0000.0001)         System time:  0.0900000036
(PID.TID 0000.0001)     Wall clock time:  0.410289049
(PID.TID 0000.0001)          No. starts: 1
(PID.TID 0000.0001)           No. stops: 1
(PID.TID 0000.0001)   Seconds in section "WRITE_STATE         [THE_MAIN_LOOP]":
(PID.TID 0000.0001)           User time:  0.110000014
(PID.TID 0000.0001)         System time:  0.00999999046
(PID.TID 0000.0001)     Wall clock time:  0.120716929
(PID.TID 0000.0001)          No. starts: 1
(PID.TID 0000.0001)           No. stops: 1
(PID.TID 0000.0001)   Seconds in section "MONITOR             [THE_MAIN_LOOP]":
(PID.TID 0000.0001)           User time:  0.129999995
(PID.TID 0000.0001)         System time:  0.
(PID.TID 0000.0001)     Wall clock time:  0.136512041
(PID.TID 0000.0001)          No. starts: 1
(PID.TID 0000.0001)           No. stops: 1
(PID.TID 0000.0001)   Seconds in section "MAIN LOOP           [THE_MAIN_LOOP]":
(PID.TID 0000.0001)           User time:  12.1199999
(PID.TID 0000.0001)         System time:  0.0600000173
(PID.TID 0000.0001)     Wall clock time:  12.1829721
(PID.TID 0000.0001)          No. starts: 1
(PID.TID 0000.0001)           No. stops: 1
(PID.TID 0000.0001)   Seconds in section "FORWARD_STEP        [THE_MAIN_LOOP]":
(PID.TID 0000.0001)           User time:  12.1199999
(PID.TID 0000.0001)         System time:  0.0600000173
(PID.TID 0000.0001)     Wall clock time:  12.1821882
(PID.TID 0000.0001)          No. starts: 10
(PID.TID 0000.0001)           No. stops: 10
(PID.TID 0000.0001)   Seconds in section "UPDATE_ETAH        [FORWARD_STEP]":
(PID.TID 0000.0001)           User time:  0.
(PID.TID 0000.0001)         System time:  0.
(PID.TID 0000.0001)     Wall clock time:  0.00358998775
(PID.TID 0000.0001)          No. starts: 10
(PID.TID 0000.0001)           No. stops: 10
(PID.TID 0000.0001)   Seconds in section "EXTERNAL_FIELDS_LOAD[FORWARD_STEP]":
(PID.TID 0000.0001)           User time:  0.00999999046
(PID.TID 0000.0001)         System time:  0.0200000107
(PID.TID 0000.0001)     Wall clock time:  0.0243105888
(PID.TID 0000.0001)          No. starts: 10
(PID.TID 0000.0001)           No. stops: 10
(PID.TID 0000.0001)   Seconds in section "THERMODYNAMICS      [FORWARD_STEP]":
(PID.TID 0000.0001)           User time:  4.44999957
(PID.TID 0000.0001)         System time:  0.00999999046
(PID.TID 0000.0001)     Wall clock time:  4.43732715
(PID.TID 0000.0001)          No. starts: 10
(PID.TID 0000.0001)           No. stops: 10
(PID.TID 0000.0001)   Seconds in section "AIM_DO_PHYSICS   [THERMODYNAMICS]":
(PID.TID 0000.0001)           User time:  2.97999835
(PID.TID 0000.0001)         System time:  0.00999999046
(PID.TID 0000.0001)     Wall clock time:  3.00151563
(PID.TID 0000.0001)          No. starts: 60
(PID.TID 0000.0001)           No. stops: 60
(PID.TID 0000.0001)   Seconds in section "BLOCKING_EXCHANGES  [FORWARD_STEP]":
(PID.TID 0000.0001)           User time:  0.0999996662
(PID.TID 0000.0001)         System time:  0.
(PID.TID 0000.0001)     Wall clock time:  0.0729900599
(PID.TID 0000.0001)          No. starts: 20
(PID.TID 0000.0001)           No. stops: 20
(PID.TID 0000.0001)   Seconds in section "SHAP_FILT           [FORWARD_STEP]":
(PID.TID 0000.0001)           User time:  0.
(PID.TID 0000.0001)         System time:  0.
(PID.TID 0000.0001)     Wall clock time:  0.000714302063
(PID.TID 0000.0001)          No. starts: 10
(PID.TID 0000.0001)           No. stops: 10
(PID.TID 0000.0001)   Seconds in section "DYNAMICS            [FORWARD_STEP]":
(PID.TID 0000.0001)           User time:  2.59000087
(PID.TID 0000.0001)         System time:  0.
(PID.TID 0000.0001)     Wall clock time:  2.5834676
(PID.TID 0000.0001)          No. starts: 10
(PID.TID 0000.0001)           No. stops: 10
(PID.TID 0000.0001)   Seconds in section "SOLVE_FOR_PRESSURE  [FORWARD_STEP]":
(PID.TID 0000.0001)           User time:  0.909998178
(PID.TID 0000.0001)         System time:  0.
(PID.TID 0000.0001)     Wall clock time:  0.904055953
(PID.TID 0000.0001)          No. starts: 10
(PID.TID 0000.0001)           No. stops: 10
(PID.TID 0000.0001)   Seconds in section "THE_CORRECTION_STEP [FORWARD_STEP]":
(PID.TID 0000.0001)           User time:  2.60000062
(PID.TID 0000.0001)         System time:  0.0100000054
(PID.TID 0000.0001)     Wall clock time:  2.641716
(PID.TID 0000.0001)          No. starts: 10
(PID.TID 0000.0001)           No. stops: 10
(PID.TID 0000.0001)   Seconds in section "MONITOR             [FORWARD_STEP]":
(PID.TID 0000.0001)           User time:  1.35000134
(PID.TID 0000.0001)         System time:  0.
(PID.TID 0000.0001)     Wall clock time:  1.38255966
(PID.TID 0000.0001)          No. starts: 10
(PID.TID 0000.0001)           No. stops: 10
(PID.TID 0000.0001)   Seconds in section "DO_THE_MODEL_IO     [FORWARD_STEP]":
(PID.TID 0000.0001)           User time:  0.0999994278
(PID.TID 0000.0001)         System time:  0.0200000107
(PID.TID 0000.0001)     Wall clock time:  0.121235013
(PID.TID 0000.0001)          No. starts: 10
(PID.TID 0000.0001)           No. stops: 10
(PID.TID 0000.0001)   Seconds in section "WRITE_CHECKPOINT    [FORWARD_STEP]":
(PID.TID 0000.0001)           User time:  0.
(PID.TID 0000.0001)         System time:  0.
(PID.TID 0000.0001)     Wall clock time:  0.000719070435
(PID.TID 0000.0001)          No. starts: 10
(PID.TID 0000.0001)           No. stops: 10
(PID.TID 0000.0001)   Seconds in section "WRITE_CHECKPOINT       [THE_MODEL_MAIN]":
(PID.TID 0000.0001)           User time:  0.25
(PID.TID 0000.0001)         System time:  0.0399999917
(PID.TID 0000.0001)     Wall clock time:  0.290147901
(PID.TID 0000.0001)          No. starts: 1
(PID.TID 0000.0001)           No. stops: 1
(PID.TID 0000.0001) // ======================================================
(PID.TID 0000.0001) // Tile <-> Tile communication statistics
(PID.TID 0000.0001) // ======================================================
(PID.TID 0000.0001) // o Tile number: 000001
(PID.TID 0000.0001) //         No. X exchanges =              0
(PID.TID 0000.0001) //            Max. X spins =              0
(PID.TID 0000.0001) //            Min. X spins =     1000000000
(PID.TID 0000.0001) //          Total. X spins =              0
(PID.TID 0000.0001) //            Avg. X spins =       0.00E+00
(PID.TID 0000.0001) //         No. Y exchanges =              0
(PID.TID 0000.0001) //            Max. Y spins =              0
(PID.TID 0000.0001) //            Min. Y spins =     1000000000
(PID.TID 0000.0001) //          Total. Y spins =              0
(PID.TID 0000.0001) //            Avg. Y spins =       0.00E+00
(PID.TID 0000.0001) // o Tile number: 000002
(PID.TID 0000.0001) //         No. X exchanges =              0
(PID.TID 0000.0001) //            Max. X spins =              0
(PID.TID 0000.0001) //            Min. X spins =     1000000000
(PID.TID 00STOP NORMAL END statement executed
00.0001) //          Total. X spins =              0
(PID.TID 0000.0001) //            Avg. X spins =       0.00E+00
(PID.TID 0000.0001) //         No. Y exchanges =              0
(PID.TID 0000.0001) //            Max. Y spins =              0
(PID.TID 0000.0001) //            Min. Y spins =     1000000000
(PID.TID 0000.0001) //          Total. Y spins =              0
(PID.TID 0000.0001) //            Avg. Y spins =       0.00E+00
(PID.TID 0000.0001) // o Tile number: 000003
(PID.TID 0000.0001) //         No. X exchanges =              0
(PID.TID 0000.0001) //            Max. X spins =              0
(PID.TID 0000.0001) //            Min. X spins =     1000000000
(PID.TID 0000.0001) //          Total. X spins =              0
(PID.TID 0000.0001) //            Avg. X spins =       0.00E+00
(PID.TID 0000.0001) //         No. Y exchanges =              0
(PID.TID 0000.0001) //            Max. Y spins =              0
(PID.TID 0000.0001) //            Min. Y spins =     1000000000
(PID.TID 0000.0001) //          Total. Y spins =              0
(PID.TID 0000.0001) //            Avg. Y spins =       0.00E+00
(PID.TID 0000.0001) // o Tile number: 000004
(PID.TID 0000.0001) //         No. X exchanges =              0
(PID.TID 0000.0001) //            Max. X spins =              0
(PID.TID 0000.0001) //            Min. X spins =     1000000000
(PID.TID 0000.0001) //          Total. X spins =              0
(PID.TID 0000.0001) //            Avg. X spins =       0.00E+00
(PID.TID 0000.0001) //         No. Y exchanges =              0
(PID.TID 0000.0001) //            Max. Y spins =              0
(PID.TID 0000.0001) //            Min. Y spins =     1000000000
(PID.TID 0000.0001) //          Total. Y spins =              0
(PID.TID 0000.0001) //            Avg. Y spins =       0.00E+00
(PID.TID 0000.0001) // o Tile number: 000005
(PID.TID 0000.0001) //         No. X exchanges =              0
(PID.TID 0000.0001) //            Max. X spins =              0
(PID.TID 0000.0001) //            Min. X spins =     1000000000
(PID.TID 0000.0001) //          Total. X spins =              0
(PID.TID 0000.0001) //            Avg. X spins =       0.00E+00
(PID.TID 0000.0001) //         No. Y exchanges =              0
(PID.TID 0000.0001) //            Max. Y spins =              0
(PID.TID 0000.0001) //            Min. Y spins =     1000000000
(PID.TID 0000.0001) //          Total. Y spins =              0
(PID.TID 0000.0001) //            Avg. Y spins =       0.00E+00
(PID.TID 0000.0001) // o Tile number: 000006
(PID.TID 0000.0001) //         No. X exchanges =              0
(PID.TID 0000.0001) //            Max. X spins =              0
(PID.TID 0000.0001) //            Min. X spins =     1000000000
(PID.TID 0000.0001) //          Total. X spins =              0
(PID.TID 0000.0001) //            Avg. X spins =       0.00E+00
(PID.TID 0000.0001) //         No. Y exchanges =              0
(PID.TID 0000.0001) //            Max. Y spins =              0
(PID.TID 0000.0001) //            Min. Y spins =     1000000000
(PID.TID 0000.0001) //          Total. Y spins =              0
(PID.TID 0000.0001) //            Avg. Y spins =       0.00E+00
(PID.TID 0000.0001) // o Thread number: 000001
(PID.TID 0000.0001) //            No. barriers =           6344
(PID.TID 0000.0001) //      Max. barrier spins =              1
(PID.TID 0000.0001) //      Min. barrier spins =              1
(PID.TID 0000.0001) //     Total barrier spins =           6344
(PID.TID 0000.0001) //      Avg. barrier spins =       1.00E+00
