(PID.TID 0000.0001) 
(PID.TID 0000.0001) // ======================================================
(PID.TID 0000.0001) //                      MITgcm UV
(PID.TID 0000.0001) //                      =========
(PID.TID 0000.0001) // ======================================================
(PID.TID 0000.0001) // execution environment starting up...
(PID.TID 0000.0001) 
(PID.TID 0000.0001) // MITgcmUV version:  checkpoint57c_post
(PID.TID 0000.0001) // Build user:        jmc
(PID.TID 0000.0001) // Build host:        faulks
(PID.TID 0000.0001) // Build date:        Tue Feb  1 22:28:50 EST 2005
(PID.TID 0000.0001) 
(PID.TID 0000.0001) // =======================================================
(PID.TID 0000.0001) // Execution Environment parameter file "eedata"
(PID.TID 0000.0001) // =======================================================
(PID.TID 0000.0001) ># Example "eedata" file
(PID.TID 0000.0001) ># Lines beginning "#" are comments
(PID.TID 0000.0001) ># nTx - No. threads per process in X
(PID.TID 0000.0001) ># nTy - No. threads per process in Y
(PID.TID 0000.0001) > &EEPARMS
(PID.TID 0000.0001) > useCubedSphereExchange=.TRUE.,
(PID.TID 0000.0001) ># Activate one line below to support 2, 3 or 6 way multi-threading
(PID.TID 0000.0001) > nTx=1,
(PID.TID 0000.0001) >#nTx=2,
(PID.TID 0000.0001) >#nTx=3,
(PID.TID 0000.0001) >#nTx=6,
(PID.TID 0000.0001) > &
(PID.TID 0000.0001) ># Note: Some systems use & as the
(PID.TID 0000.0001) ># namelist terminator. Other systems
(PID.TID 0000.0001) ># use a / character (as shown here).
(PID.TID 0000.0001) 
(PID.TID 0000.0001) // =======================================================
(PID.TID 0000.0001) // Computational Grid Specification ( see files "SIZE.h" )
(PID.TID 0000.0001) //                                  ( and "eedata"       )
(PID.TID 0000.0001) // =======================================================
(PID.TID 0000.0001)      nPx =    1 ; /* No. processes in X */
(PID.TID 0000.0001)      nPy =    1 ; /* No. processes in Y */
(PID.TID 0000.0001)      nSx =    6 ; /* No. tiles in X per process */
(PID.TID 0000.0001)      nSy =    1 ; /* No. tiles in Y per process */
(PID.TID 0000.0001)      sNx =   32 ; /* Tile size in X */
(PID.TID 0000.0001)      sNy =   32 ; /* Tile size in Y */
(PID.TID 0000.0001)      OLx =    2 ; /* Tile overlap distance in X */
(PID.TID 0000.0001)      OLy =    2 ; /* Tile overlap distance in Y */
(PID.TID 0000.0001)      nTx =    1 ; /* No. threads in X per process */
(PID.TID 0000.0001)      nTy =    1 ; /* No. threads in Y per process */
(PID.TID 0000.0001)       Nr =    5 ; /* No. levels in the vertical   */
(PID.TID 0000.0001)       nX =  192 ; /* Total domain size in X ( = nPx*nSx*sNx ) */
(PID.TID 0000.0001)       nY =   32 ; /* Total domain size in Y ( = nPy*nSy*sNy ) */
(PID.TID 0000.0001)   nTiles =    6 ; /* Total no. tiles per process ( = nSx*nSy ) */
(PID.TID 0000.0001)   nProcs =    1 ; /* Total no. processes ( = nPx*nPy ) */
(PID.TID 0000.0001) nThreads =    1 ; /* Total no. threads per process ( = nTx*nTy ) */
(PID.TID 0000.0001) usingMPI =    F ; /* Flag used to control whether MPI is in use */
(PID.TID 0000.0001)                   /*  note: To execute a program with MPI calls */
(PID.TID 0000.0001)                   /*  it must be launched appropriately e.g     */
(PID.TID 0000.0001)                   /*  "mpirun -np 64 ......"                    */
(PID.TID 0000.0001) useCoupler=   F ; /* Flag used to control communications with */
(PID.TID 0000.0001)                   /*  other model components, through a coupler */
(PID.TID 0000.0001) 
(PID.TID 0000.0001) // ======================================================
(PID.TID 0000.0001) // Mapping of tiles to threads
(PID.TID 0000.0001) // ======================================================
(PID.TID 0000.0001) // -o- Thread   1, tiles (   1:   6,   1:   1)
(PID.TID 0000.0001) 
(PID.TID 0000.0001) // ======================================================
(PID.TID 0000.0001) // Tile <-> Tile connectvity table
(PID.TID 0000.0001) // ======================================================
(PID.TID 0000.0001) // Tile number: 000001 (process no. = 000001)
(PID.TID 0000.0001) //        WEST: Tile = 000006, Process = 000001, Comm = put
(PID.TID 0000.0001) //                bi = 000006, bj = 000001
(PID.TID 0000.0001) //        EAST: Tile = 000002, Process = 000001, Comm = put
(PID.TID 0000.0001) //                bi = 000002, bj = 000001
(PID.TID 0000.0001) //       SOUTH: Tile = 000001, Process = 000001, Comm = put
(PID.TID 0000.0001) //                bi = 000001, bj = 000001
(PID.TID 0000.0001) //       NORTH: Tile = 000001, Process = 000001, Comm = put
(PID.TID 0000.0001) //                bi = 000001, bj = 000001
(PID.TID 0000.0001) // Tile number: 000002 (process no. = 000001)
(PID.TID 0000.0001) //        WEST: Tile = 000001, Process = 000001, Comm = put
(PID.TID 0000.0001) //                bi = 000001, bj = 000001
(PID.TID 0000.0001) //        EAST: Tile = 000003, Process = 000001, Comm = put
(PID.TID 0000.0001) //                bi = 000003, bj = 000001
(PID.TID 0000.0001) //       SOUTH: Tile = 000002, Process = 000001, Comm = put
(PID.TID 0000.0001) //                bi = 000002, bj = 000001
(PID.TID 0000.0001) //       NORTH: Tile = 000002, Process = 000001, Comm = put
(PID.TID 0000.0001) //                bi = 000002, bj = 000001
(PID.TID 0000.0001) // Tile number: 000003 (process no. = 000001)
(PID.TID 0000.0001) //        WEST: Tile = 000002, Process = 000001, Comm = put
(PID.TID 0000.0001) //                bi = 000002, bj = 000001
(PID.TID 0000.0001) //        EAST: Tile = 000004, Process = 000001, Comm = put
(PID.TID 0000.0001) //                bi = 000004, bj = 000001
(PID.TID 0000.0001) //       SOUTH: Tile = 000003, Process = 000001, Comm = put
(PID.TID 0000.0001) //                bi = 000003, bj = 000001
(PID.TID 0000.0001) //       NORTH: Tile = 000003, Process = 000001, Comm = put
(PID.TID 0000.0001) //                bi = 000003, bj = 000001
(PID.TID 0000.0001) // Tile number: 000004 (process no. = 000001)
(PID.TID 0000.0001) //        WEST: Tile = 000003, Process = 000001, Comm = put
(PID.TID 0000.0001) //                bi = 000003, bj = 000001
(PID.TID 0000.0001) //        EAST: Tile = 000005, Process = 000001, Comm = put
(PID.TID 0000.0001) //                bi = 000005, bj = 000001
(PID.TID 0000.0001) //       SOUTH: Tile = 000004, Process = 000001, Comm = put
(PID.TID 0000.0001) //                bi = 000004, bj = 000001
(PID.TID 0000.0001) //       NORTH: Tile = 000004, Process = 000001, Comm = put
(PID.TID 0000.0001) //                bi = 000004, bj = 000001
(PID.TID 0000.0001) // Tile number: 000005 (process no. = 000001)
(PID.TID 0000.0001) //        WEST: Tile = 000004, Process = 000001, Comm = put
(PID.TID 0000.0001) //                bi = 000004, bj = 000001
(PID.TID 0000.0001) //        EAST: Tile = 000006, Process = 000001, Comm = put
(PID.TID 0000.0001) //                bi = 000006, bj = 000001
(PID.TID 0000.0001) //       SOUTH: Tile = 000005, Process = 000001, Comm = put
(PID.TID 0000.0001) //                bi = 000005, bj = 000001
(PID.TID 0000.0001) //       NORTH: Tile = 000005, Process = 000001, Comm = put
(PID.TID 0000.0001) //                bi = 000005, bj = 000001
(PID.TID 0000.0001) // Tile number: 000006 (process no. = 000001)
(PID.TID 0000.0001) //        WEST: Tile = 000005, Process = 000001, Comm = put
(PID.TID 0000.0001) //                bi = 000005, bj = 000001
(PID.TID 0000.0001) //        EAST: Tile = 000001, Process = 000001, Comm = put
(PID.TID 0000.0001) //                bi = 000001, bj = 000001
(PID.TID 0000.0001) //       SOUTH: Tile = 000006, Process = 000001, Comm = put
(PID.TID 0000.0001) //                bi = 000006, bj = 000001
(PID.TID 0000.0001) //       NORTH: Tile = 000006, Process = 000001, Comm = put
(PID.TID 0000.0001) //                bi = 000006, bj = 000001
(PID.TID 0000.0001) 
(PID.TID 0000.0001) ===== W2 TILE TOPLOGY =====
(PID.TID 0000.0001)  TILE:    1
(PID.TID 0000.0001)       NEIGHBOUR    1 = TILE    3 Comm = PUT ( PROC =    1)
(PID.TID 0000.0001)       NEIGHBOUR    2 = TILE    6 Comm = PUT ( PROC =    1)
(PID.TID 0000.0001)       NEIGHBOUR    3 = TILE    2 Comm = PUT ( PROC =    1)
(PID.TID 0000.0001)       NEIGHBOUR    4 = TILE    5 Comm = PUT ( PROC =    1)
(PID.TID 0000.0001)  TILE:    2
(PID.TID 0000.0001)       NEIGHBOUR    1 = TILE    3 Comm = PUT ( PROC =    1)
(PID.TID 0000.0001)       NEIGHBOUR    2 = TILE    6 Comm = PUT ( PROC =    1)
(PID.TID 0000.0001)       NEIGHBOUR    3 = TILE    4 Comm = PUT ( PROC =    1)
(PID.TID 0000.0001)       NEIGHBOUR    4 = TILE    1 Comm = PUT ( PROC =    1)
(PID.TID 0000.0001)  TILE:    3
(PID.TID 0000.0001)       NEIGHBOUR    1 = TILE    5 Comm = PUT ( PROC =    1)
(PID.TID 0000.0001)       NEIGHBOUR    2 = TILE    2 Comm = PUT ( PROC =    1)
(PID.TID 0000.0001)       NEIGHBOUR    3 = TILE    4 Comm = PUT ( PROC =    1)
(PID.TID 0000.0001)       NEIGHBOUR    4 = TILE    1 Comm = PUT ( PROC =    1)
(PID.TID 0000.0001)  TILE:    4
(PID.TID 0000.0001)       NEIGHBOUR    1 = TILE    5 Comm = PUT ( PROC =    1)
(PID.TID 0000.0001)       NEIGHBOUR    2 = TILE    2 Comm = PUT ( PROC =    1)
(PID.TID 0000.0001)       NEIGHBOUR    3 = TILE    6 Comm = PUT ( PROC =    1)
(PID.TID 0000.0001)       NEIGHBOUR    4 = TILE    3 Comm = PUT ( PROC =    1)
(PID.TID 0000.0001)  TILE:    5
(PID.TID 0000.0001)       NEIGHBOUR    1 = TILE    1 Comm = PUT ( PROC =    1)
(PID.TID 0000.0001)       NEIGHBOUR    2 = TILE    4 Comm = PUT ( PROC =    1)
(PID.TID 0000.0001)       NEIGHBOUR    3 = TILE    6 Comm = PUT ( PROC =    1)
(PID.TID 0000.0001)       NEIGHBOUR    4 = TILE    3 Comm = PUT ( PROC =    1)
(PID.TID 0000.0001)  TILE:    6
(PID.TID 0000.0001)       NEIGHBOUR    1 = TILE    1 Comm = PUT ( PROC =    1)
(PID.TID 0000.0001)       NEIGHBOUR    2 = TILE    4 Comm = PUT ( PROC =    1)
(PID.TID 0000.0001)       NEIGHBOUR    3 = TILE    2 Comm = PUT ( PROC =    1)
(PID.TID 0000.0001)       NEIGHBOUR    4 = TILE    5 Comm = PUT ( PROC =    1)
(PID.TID 0000.0001) Tile    1(proc =   1) sends points i=  34:  -1, j=  31:  32
(PID.TID 0000.0001)                          to points i=  -1:   0, j=  -1:  34 in tile    3(proc =   1)
(PID.TID 0000.0001) Tile    1(proc =   1) sends points i=  -1:  34, j=   1:   2
(PID.TID 0000.0001)                          to points i=  -1:  34, j=  33:  34 in tile    6(proc =   1)
(PID.TID 0000.0001) Tile    1(proc =   1) sends points i=  31:  32, j=  -1:  34
(PID.TID 0000.0001)                          to points i=  -1:   0, j=  -1:  34 in tile    2(proc =   1)
(PID.TID 0000.0001) Tile    1(proc =   1) sends points i=   1:   2, j=  34:  -1
(PID.TID 0000.0001)                          to points i=  -1:  34, j=  33:  34 in tile    5(proc =   1)
(PID.TID 0000.0001) Tile    2(proc =   1) sends points i=  -1:  34, j=  31:  32
(PID.TID 0000.0001)                          to points i=  -1:  34, j=  -1:   0 in tile    3(proc =   1)
(PID.TID 0000.0001) Tile    2(proc =   1) sends points i=  34:  -1, j=   1:   2
(PID.TID 0000.0001)                          to points i=  33:  34, j=  -1:  34 in tile    6(proc =   1)
(PID.TID 0000.0001) Tile    2(proc =   1) sends points i=  31:  32, j=  34:  -1
(PID.TID 0000.0001)                          to points i=  -1:  34, j=  -1:   0 in tile    4(proc =   1)
(PID.TID 0000.0001) Tile    2(proc =   1) sends points i=   1:   2, j=  -1:  34
(PID.TID 0000.0001)                          to points i=  33:  34, j=  -1:  34 in tile    1(proc =   1)
(PID.TID 0000.0001) Tile    3(proc =   1) sends points i=  34:  -1, j=  31:  32
(PID.TID 0000.0001)                          to points i=  -1:   0, j=  -1:  34 in tile    5(proc =   1)
(PID.TID 0000.0001) Tile    3(proc =   1) sends points i=  -1:  34, j=   1:   2
(PID.TID 0000.0001)                          to points i=  -1:  34, j=  33:  34 in tile    2(proc =   1)
(PID.TID 0000.0001) Tile    3(proc =   1) sends points i=  31:  32, j=  -1:  34
(PID.TID 0000.0001)                          to points i=  -1:   0, j=  -1:  34 in tile    4(proc =   1)
(PID.TID 0000.0001) Tile    3(proc =   1) sends points i=   1:   2, j=  34:  -1
(PID.TID 0000.0001)                          to points i=  -1:  34, j=  33:  34 in tile    1(proc =   1)
(PID.TID 0000.0001) Tile    4(proc =   1) sends points i=  -1:  34, j=  31:  32
(PID.TID 0000.0001)                          to points i=  -1:  34, j=  -1:   0 in tile    5(proc =   1)
(PID.TID 0000.0001) Tile    4(proc =   1) sends points i=  34:  -1, j=   1:   2
(PID.TID 0000.0001)                          to points i=  33:  34, j=  -1:  34 in tile    2(proc =   1)
(PID.TID 0000.0001) Tile    4(proc =   1) sends points i=  31:  32, j=  34:  -1
(PID.TID 0000.0001)                          to points i=  -1:  34, j=  -1:   0 in tile    6(proc =   1)
(PID.TID 0000.0001) Tile    4(proc =   1) sends points i=   1:   2, j=  -1:  34
(PID.TID 0000.0001)                          to points i=  33:  34, j=  -1:  34 in tile    3(proc =   1)
(PID.TID 0000.0001) Tile    5(proc =   1) sends points i=  34:  -1, j=  31:  32
(PID.TID 0000.0001)                          to points i=  -1:   0, j=  -1:  34 in tile    1(proc =   1)
(PID.TID 0000.0001) Tile    5(proc =   1) sends points i=  -1:  34, j=   1:   2
(PID.TID 0000.0001)                          to points i=  -1:  34, j=  33:  34 in tile    4(proc =   1)
(PID.TID 0000.0001) Tile    5(proc =   1) sends points i=  31:  32, j=  -1:  34
(PID.TID 0000.0001)                          to points i=  -1:   0, j=  -1:  34 in tile    6(proc =   1)
(PID.TID 0000.0001) Tile    5(proc =   1) sends points i=   1:   2, j=  34:  -1
(PID.TID 0000.0001)                          to points i=  -1:  34, j=  33:  34 in tile    3(proc =   1)
(PID.TID 0000.0001) Tile    6(proc =   1) sends points i=  -1:  34, j=  31:  32
(PID.TID 0000.0001)                          to points i=  -1:  34, j=  -1:   0 in tile    1(proc =   1)
(PID.TID 0000.0001) Tile    6(proc =   1) sends points i=  34:  -1, j=   1:   2
(PID.TID 0000.0001)                          to points i=  33:  34, j=  -1:  34 in tile    4(proc =   1)
(PID.TID 0000.0001) Tile    6(proc =   1) sends points i=  31:  32, j=  34:  -1
(PID.TID 0000.0001)                          to points i=  -1:  34, j=  -1:   0 in tile    2(proc =   1)
(PID.TID 0000.0001) Tile    6(proc =   1) sends points i=   1:   2, j=  -1:  34
(PID.TID 0000.0001)                          to points i=  33:  34, j=  -1:  34 in tile    5(proc =   1)
(PID.TID 0000.0001) Tile    1(proc =   1)recv to points i=  -1:  34, j=  33:  34from tile   3(proc =   1)
(PID.TID 0000.0001) Tile    1(proc =   1)recv to points i=  -1:  34, j=  -1:   0from tile   6(proc =   1)
(PID.TID 0000.0001) Tile    1(proc =   1)recv to points i=  33:  34, j=  -1:  34from tile   2(proc =   1)
(PID.TID 0000.0001) Tile    1(proc =   1)recv to points i=  -1:   0, j=  -1:  34from tile   5(proc =   1)
(PID.TID 0000.0001) Tile    2(proc =   1)recv to points i=  -1:  34, j=  33:  34from tile   3(proc =   1)
(PID.TID 0000.0001) Tile    2(proc =   1)recv to points i=  -1:  34, j=  -1:   0from tile   6(proc =   1)
(PID.TID 0000.0001) Tile    2(proc =   1)recv to points i=  33:  34, j=  -1:  34from tile   4(proc =   1)
(PID.TID 0000.0001) Tile    2(proc =   1)recv to points i=  -1:   0, j=  -1:  34from tile   1(proc =   1)
(PID.TID 0000.0001) Tile    3(proc =   1)recv to points i=  -1:  34, j=  33:  34from tile   5(proc =   1)
(PID.TID 0000.0001) Tile    3(proc =   1)recv to points i=  -1:  34, j=  -1:   0from tile   2(proc =   1)
(PID.TID 0000.0001) Tile    3(proc =   1)recv to points i=  33:  34, j=  -1:  34from tile   4(proc =   1)
(PID.TID 0000.0001) Tile    3(proc =   1)recv to points i=  -1:   0, j=  -1:  34from tile   1(proc =   1)
(PID.TID 0000.0001) Tile    4(proc =   1)recv to points i=  -1:  34, j=  33:  34from tile   5(proc =   1)
(PID.TID 0000.0001) Tile    4(proc =   1)recv to points i=  -1:  34, j=  -1:   0from tile   2(proc =   1)
(PID.TID 0000.0001) Tile    4(proc =   1)recv to points i=  33:  34, j=  -1:  34from tile   6(proc =   1)
(PID.TID 0000.0001) Tile    4(proc =   1)recv to points i=  -1:   0, j=  -1:  34from tile   3(proc =   1)
(PID.TID 0000.0001) Tile    5(proc =   1)recv to points i=  -1:  34, j=  33:  34from tile   1(proc =   1)
(PID.TID 0000.0001) Tile    5(proc =   1)recv to points i=  -1:  34, j=  -1:   0from tile   4(proc =   1)
(PID.TID 0000.0001) Tile    5(proc =   1)recv to points i=  33:  34, j=  -1:  34from tile   6(proc =   1)
(PID.TID 0000.0001) Tile    5(proc =   1)recv to points i=  -1:   0, j=  -1:  34from tile   3(proc =   1)
(PID.TID 0000.0001) Tile    6(proc =   1)recv to points i=  -1:  34, j=  33:  34from tile   1(proc =   1)
(PID.TID 0000.0001) Tile    6(proc =   1)recv to points i=  -1:  34, j=  -1:   0from tile   4(proc =   1)
(PID.TID 0000.0001) Tile    6(proc =   1)recv to points i=  33:  34, j=  -1:  34from tile   2(proc =   1)
(PID.TID 0000.0001) Tile    6(proc =   1)recv to points i=  -1:   0, j=  -1:  34from tile   5(proc =   1)
(PID.TID 0000.0001) // =======================================================
(PID.TID 0000.0001) // Model parameter file "data"
(PID.TID 0000.0001) // =======================================================
(PID.TID 0000.0001) ># ====================
(PID.TID 0000.0001) ># | Model parameters |
(PID.TID 0000.0001) ># ====================
(PID.TID 0000.0001) >#
(PID.TID 0000.0001) ># Continuous equation parameters
(PID.TID 0000.0001) > &PARM01
(PID.TID 0000.0001) > tRef=289.6, 298.1, 314.5, 335.8, 437.4,
(PID.TID 0000.0001) > sRef=5*0.,
(PID.TID 0000.0001) > no_slip_sides=.FALSE.,
(PID.TID 0000.0001) > no_slip_bottom=.FALSE.,
(PID.TID 0000.0001) > buoyancyRelation='ATMOSPHERIC',
(PID.TID 0000.0001) > eosType='IDEALGAS',
(PID.TID 0000.0001) > atm_Rq=0.6078E-3,
(PID.TID 0000.0001) > Integr_GeoPot=2,
(PID.TID 0000.0001) > selectFindRoSurf=1,
(PID.TID 0000.0001) > gravity=9.81,
(PID.TID 0000.0001) > rhonil=1.0,
(PID.TID 0000.0001) > rhoConst=1.0,
(PID.TID 0000.0001) > rhoConstFresh=1000.,
(PID.TID 0000.0001) > implicitFreeSurface=.TRUE.,
(PID.TID 0000.0001) > exactConserv=.TRUE.,
(PID.TID 0000.0001) > select_rStar=2,
(PID.TID 0000.0001) > nonlinFreeSurf=4,
(PID.TID 0000.0001) > hFacInf=0.2,
(PID.TID 0000.0001) > hFacSup=2.0,
(PID.TID 0000.0001) > uniformLin_PhiSurf=.FALSE.,
(PID.TID 0000.0001) > hFacMin=0.2,
(PID.TID 0000.0001) > saltAdvScheme=3,
(PID.TID 0000.0001) > vectorInvariantMomentum=.TRUE.,
(PID.TID 0000.0001) > useJamartWetPoints=.TRUE.,
(PID.TID 0000.0001) > staggerTimeStep=.TRUE.,
(PID.TID 0000.0001) > readBinaryPrec=64,
(PID.TID 0000.0001) > writeBinaryPrec=64,
(PID.TID 0000.0001) > &
(PID.TID 0000.0001) >
(PID.TID 0000.0001) ># Elliptic solver parameters
(PID.TID 0000.0001) > &PARM02
(PID.TID 0000.0001) > cg2dMaxIters=200,
(PID.TID 0000.0001) >#cg2dTargetResidual=1.E-12,
(PID.TID 0000.0001) > cg2dTargetResWunit=1.E-17,
(PID.TID 0000.0001) > &
(PID.TID 0000.0001) >
(PID.TID 0000.0001) ># Time stepping parameters
(PID.TID 0000.0001) > &PARM03
(PID.TID 0000.0001) > nIter0=0,
(PID.TID 0000.0001) > nTimeSteps=10,
(PID.TID 0000.0001) ># 10yr:
(PID.TID 0000.0001) >#endTime=311040000.,
(PID.TID 0000.0001) > deltaT=450.0,
(PID.TID 0000.0001) > abEps=0.1,
(PID.TID 0000.0001) > forcing_In_AB=.FALSE.,
(PID.TID 0000.0001) > cAdjFreq=0.,
(PID.TID 0000.0001) > pChkptFreq=2592000.,
(PID.TID 0000.0001) > taveFreq=2592000.,
(PID.TID 0000.0001) > dumpFreq=2592000.,
(PID.TID 0000.0001) > monitorFreq=86400.,
(PID.TID 0000.0001) > monitorFreq=1.,
(PID.TID 0000.0001) > &
(PID.TID 0000.0001) >
(PID.TID 0000.0001) ># Gridding parameters
(PID.TID 0000.0001) > &PARM04
(PID.TID 0000.0001) > usingCurvilinearGrid=.TRUE.,
(PID.TID 0000.0001) > delR=100.E2, 250.E2, 300.E2, 200.E2, 150.E2,
(PID.TID 0000.0001) > Ro_SeaLevel=1.E5,
(PID.TID 0000.0001) > groundAtK1=.TRUE.,
(PID.TID 0000.0001) > rSphere=6370.E3,
(PID.TID 0000.0001) > &
(PID.TID 0000.0001) >
(PID.TID 0000.0001) ># Input datasets
(PID.TID 0000.0001) > &PARM05
(PID.TID 0000.0001) > topoFile='topo.cpl_FM.bin',
(PID.TID 0000.0001) > &
(PID.TID 0000.0001) 
(PID.TID 0000.0001) S/R INI_PARMS ; starts to read PARM01
(PID.TID 0000.0001) S/R INI_PARMS ; read PARM01 : OK
(PID.TID 0000.0001) S/R INI_PARMS ; starts to read PARM02
(PID.TID 0000.0001) S/R INI_PARMS ; read PARM02 : OK
(PID.TID 0000.0001) S/R INI_PARMS ; starts to read PARM03
(PID.TID 0000.0001) S/R INI_PARMS ; read PARM03 : OK
(PID.TID 0000.0001) S/R INI_PARMS ; starts to read PARM04
(PID.TID 0000.0001) S/R INI_PARMS ; read PARM04 : OK
(PID.TID 0000.0001) S/R INI_PARMS ; starts to read PARM05
(PID.TID 0000.0001) S/R INI_PARMS ; read PARM05 : OK
(PID.TID 0000.0001)  PACKAGES_BOOT: opening data.pkg
(PID.TID 0000.0001)  OPEN_COPY_DATA_FILE: opening file data.pkg
(PID.TID 0000.0001) // =======================================================
(PID.TID 0000.0001) // Parameter file "data.pkg"
(PID.TID 0000.0001) // =======================================================
(PID.TID 0000.0001) ># Packages
(PID.TID 0000.0001) >#     useAIM  :: use Atmospheric Intermediate complexity Model
(PID.TID 0000.0001) >#     useLand :: use (simple) Land package to compute surf. BC over land
(PID.TID 0000.0001) >#   useThSIce :: use Therm. SeaIce package (+slab ocean)
(PID.TID 0000.0001) > &PACKAGES
(PID.TID 0000.0001) > useAIM=.TRUE.,
(PID.TID 0000.0001) > useLand=.TRUE.,
(PID.TID 0000.0001) > useThSIce=.TRUE.,
(PID.TID 0000.0001) > useSHAP_FILT=.TRUE.,
(PID.TID 0000.0001) > useDiagnostics=.TRUE.,
(PID.TID 0000.0001) > &
(PID.TID 0000.0001) 
(PID.TID 0000.0001)  PACKAGES_BOOT: finished reading data.pkg
(PID.TID 0000.0001)  SHAP_FILT_READPARMS: opening data.shap
(PID.TID 0000.0001)  OPEN_COPY_DATA_FILE: opening file data.shap
(PID.TID 0000.0001) // =======================================================
(PID.TID 0000.0001) // Parameter file "data.shap"
(PID.TID 0000.0001) // =======================================================
(PID.TID 0000.0001) ># Shapiro Filter parameters
(PID.TID 0000.0001) > &SHAP_PARM01
(PID.TID 0000.0001) > shap_filt_uvStar=.FALSE.,
(PID.TID 0000.0001) > shap_filt_TrStagg=.TRUE.,
(PID.TID 0000.0001) > Shap_funct=2,
(PID.TID 0000.0001) > nShapT=4,
(PID.TID 0000.0001) > nShapUV=4,
(PID.TID 0000.0001) > nShapTrPhys=1,
(PID.TID 0000.0001) > nShapUVPhys=0,
(PID.TID 0000.0001) > Shap_TrLength=140000.,
(PID.TID 0000.0001) >#Shap_uvLength=140000.,
(PID.TID 0000.0001) > Shap_Trtau=5400.,
(PID.TID 0000.0001) > Shap_uvtau=1800.,
(PID.TID 0000.0001) >#Shap_diagFreq=2592000.,
(PID.TID 0000.0001) > &
(PID.TID 0000.0001) 
(PID.TID 0000.0001)  SHAP_FILT_READPARMS: finished reading data.shap
(PID.TID 0000.0001) Shap_funct =   /* select Shapiro filter function */
(PID.TID 0000.0001)                       2
(PID.TID 0000.0001)     ;
(PID.TID 0000.0001) nShapT =   /* power of Shapiro filter for Temperat */
(PID.TID 0000.0001)                       4
(PID.TID 0000.0001)     ;
(PID.TID 0000.0001) nShapS =   /* power of Shapiro filter for Salinity */
(PID.TID 0000.0001)                       4
(PID.TID 0000.0001)     ;
(PID.TID 0000.0001) nShapUV =   /* power of Shapiro filter for momentum */
(PID.TID 0000.0001)                       4
(PID.TID 0000.0001)     ;
(PID.TID 0000.0001) nShapTrPhys =   /* power of physical-space filter (Tracer) */
(PID.TID 0000.0001)                       1
(PID.TID 0000.0001)     ;
(PID.TID 0000.0001) nShapUVPhys =   /* power of physical-space filter (Momentum) */
(PID.TID 0000.0001)                       0
(PID.TID 0000.0001)     ;
(PID.TID 0000.0001) Shap_Trtau =   /* time scale of Shapiro filter (Tracer) */
(PID.TID 0000.0001)                 5.400000000000000E+03
(PID.TID 0000.0001)     ;
(PID.TID 0000.0001) Shap_TrLength =   /* Length scale of Shapiro filter (Tracer) */
(PID.TID 0000.0001)                 1.400000000000000E+05
(PID.TID 0000.0001)     ;
(PID.TID 0000.0001) Shap_uvtau =   /* time scale of Shapiro filter (Momentum) */
(PID.TID 0000.0001)                 1.800000000000000E+03
(PID.TID 0000.0001)     ;
(PID.TID 0000.0001) Shap_uvLength =   /* Length scale of Shapiro filter (Momentum) */
(PID.TID 0000.0001)                 0.000000000000000E+00
(PID.TID 0000.0001)     ;
(PID.TID 0000.0001) Shap_noSlip =  /* No-slip parameter (0=Free-slip ; 1=No-slip)*/
(PID.TID 0000.0001)                 0.000000000000000E+00
(PID.TID 0000.0001)     ;
(PID.TID 0000.0001) Shap_diagFreq =   /* Frequency^-1 for diagnostic output (s)*/
(PID.TID 0000.0001)                 0.000000000000000E+00
(PID.TID 0000.0001)     ;
(PID.TID 0000.0001)  THSICE_READPARMS: opening data.ice
(PID.TID 0000.0001)  OPEN_COPY_DATA_FILE: opening file data.ice
(PID.TID 0000.0001) // =======================================================
(PID.TID 0000.0001) // Parameter file "data.ice"
(PID.TID 0000.0001) // =======================================================
(PID.TID 0000.0001) > &THSICE_CONST
(PID.TID 0000.0001) > Tf0kel  = 273.15,
(PID.TID 0000.0001) > rhosw   = 1030.,
(PID.TID 0000.0001) >#- with LANL albedo:
(PID.TID 0000.0001) >#albWarmSnow=0.75,
(PID.TID 0000.0001) >#- for full ice-fraction :
(PID.TID 0000.0001) >#icemaskmin = 1.,
(PID.TID 0000.0001) >#himin0     = 0.01,
(PID.TID 0000.0001) >#frac_energy= 0.,
(PID.TID 0000.0001) >#hihig      =100.,
(PID.TID 0000.0001) >#- with fractional ice:
(PID.TID 0000.0001) > iceMaskmin = 0.01,
(PID.TID 0000.0001) > himin0     = 0.1,
(PID.TID 0000.0001) > hiMax      = 10.,
(PID.TID 0000.0001) > hsMax      = 10.,
(PID.TID 0000.0001) >#albIceMax  =0.7,
(PID.TID 0000.0001) >#albIceMin  =0.7,
(PID.TID 0000.0001) > &
(PID.TID 0000.0001) >
(PID.TID 0000.0001) > &THSICE_PARM01
(PID.TID 0000.0001) >#startIceModel=1,
(PID.TID 0000.0001) > stepFwd_oceMxL=.TRUE.,
(PID.TID 0000.0001) >#ocean_deltaT=3600.,
(PID.TID 0000.0001) > tauRelax_MxL=5184000.,
(PID.TID 0000.0001) > stressReduction=0.,
(PID.TID 0000.0001) >#thSIce_taveFreq=2592000.,
(PID.TID 0000.0001) > thSIce_diagFreq=5184000.,
(PID.TID 0000.0001) >#thSIce_monFreq=864000.,
(PID.TID 0000.0001) >#thSIce_diagFreq=0.,
(PID.TID 0000.0001) > &
(PID.TID 0000.0001) >
(PID.TID 0000.0001) 
(PID.TID 0000.0001)  THSICE_READPARMS: read THSICE_CONST
(PID.TID 0000.0001)  THSICE_READPARMS: read THSICE_PARM01
 ThSI: rhos    =  330.
 ThSI: rhoi    =  900.
 ThSI: rhosw   =  1030.
 ThSI: rhofw   =  1000.
 ThSI: rhoiw   =  130.
 ThSI: cpice   =  2106.
 ThSI: cpwater =  3994.
 ThSI: kice    =  2.03
 ThSI: ksnow   =  0.3
 ThSI: transcoef=  0.006
 ThSI: Lfresh  =  334000.
 ThSI: qsnow   =  334000.
 ThSI: albColdSnow=  0.85
 ThSI: albWarmSnow=  0.7
 ThSI: albOldSnow =  0.55
 ThSI: hNewSnowAge=  0.002
 ThSI: albIceMax =  0.65
 ThSI: albIceMin =  0.2
 ThSI: hAlbIce   =  0.5
 ThSI: hAlbSnow  =  0.3
 ThSI: i0      =  0.3
 ThSI: ksolar  =  1.5
 ThSI: saltice =  4.
 ThSI: S_winton=  1.
 ThSI: mu_Tf   =  0.054
 ThSI: Tf0kel  =  273.15
 ThSI: Tmlt1   = -0.054
 ThSI: himin   =  0.01
 ThSI: Terrmax =  0.5
 ThSI: nitMaxTsf= 20
 ThSI: hiMax   =  10.
 ThSI: hsMax   =  10.
 ThSI: iceMaskmax=  1.
 ThSI: iceMaskmin=  0.01
 ThSI: himin0  =  0.1
 ThSI: frac_energy  0.4
 ThSI: hihig   =  2.5
 ThSI: stressReduction =  0.
 ThSI: thSIce_deltaT =  450.
 ThSI: ocean_deltaT  =  450.
 ThSI: stepFwd_oceMxL= T
 ThSI: tauRelax_MxL  =  5184000.
 ThSI: hMxL_default  =  50.
 ThSI: sMxL_default  =  35.
 ThSI: vMxL_default  =  0.05
 ThSI: thSIce_taveFreq=  2592000.
 ThSI: thSIce_diagFreq=  5184000.
 ThSI: thSIce_monFreq =  1.
 ThSI: startIceModel = 0
(PID.TID 0000.0001)  DIAGNOSTICS_READPARMS: opening data.diagnostics
(PID.TID 0000.0001)  OPEN_COPY_DATA_FILE: opening file data.diagnostics
(PID.TID 0000.0001) // =======================================================
(PID.TID 0000.0001) // Parameter file "data.diagnostics"
(PID.TID 0000.0001) // =======================================================
(PID.TID 0000.0001) ># Diagnostic Package Choices
(PID.TID 0000.0001) > &diagnostics_list
(PID.TID 0000.0001) >  frequency(1) = 10,
(PID.TID 0000.0001) >   levels(1,1) = 1.,
(PID.TID 0000.0001) >   fields(1,1) = 'ETAN    ','ETANSQ  ','DETADT2 ',
(PID.TID 0000.0001) >   filename(1) = 'surfDiag',
(PID.TID 0000.0001) >  frequency(2) = 10,
(PID.TID 0000.0001) >   levels(1,2) = 1.,2.,3.,4.,5.,
(PID.TID 0000.0001) >   fields(1,2) = 'UVEL    ','VVEL    ','WVEL    ','THETA   ','SALT    ',
(PID.TID 0000.0001) >                 'UVELSQ  ','VVELSQ  ','THETASQ ','UV_VEL_Z',
(PID.TID 0000.0001) >                 'UVELMASS','VVELMASS',
(PID.TID 0000.0001) >                 'UTHMASS ','VTHMASS ','WVELTH  ',
(PID.TID 0000.0001) >                 'USLTMASS','VSLTMASS','WVELSLT ',
(PID.TID 0000.0001) >   filename(2) = 'dynDiag',
(PID.TID 0000.0001) >  frequency(3) = 10,
(PID.TID 0000.0001) >   levels(1,3) = 1.,
(PID.TID 0000.0001) >   fields(1,3) = 'UFLUX   ', 'VFLUX   ',
(PID.TID 0000.0001) >                 'OSR     ', 'OLR     ', 'RADSWG  ', 'RADLWG  ',
(PID.TID 0000.0001) >                 'HFLUX   ', 'EVAP    ', 'PRECON  ', 'PRECLS  ',
(PID.TID 0000.0001) >#                'CLDFRC  ', 'CLDPRS  ', 'CTPCNT  ', 'CLDMAS  ',
(PID.TID 0000.0001) >                 'CLDFRC  ', 'CLDPRS  ', 'CLDMAS  ',
(PID.TID 0000.0001) >                 'KM      ', 'WINDS   ', 'TS      ', 'QS      ',
(PID.TID 0000.0001) >                 'ENPREC  ', 'ALBVISDF', 'SDIAG1  ',
(PID.TID 0000.0001) >#                'OSRCLR  ', 'OLRCLR  ', 'SWGCLR  ', 'LWGCLR  ',
(PID.TID 0000.0001) >   filename(3) = 'aimDiag',
(PID.TID 0000.0001) >  frequency(4) = 10,
(PID.TID 0000.0001) >   levels(1,4) = 1.,2.,3.,4.,5.,
(PID.TID 0000.0001) >   fields(1,4) = 'RELHUM  ', 'DIABT   ', 'DIABQ   ',
(PID.TID 0000.0001) >                 'RADSW   ', 'RADLW   ', 'DTCONV  ', 'DTLS    ',
(PID.TID 0000.0001) >                 'DQCONV  ', 'DQLS    ',
(PID.TID 0000.0001) >#                'SWCLR   ', 'LWCLR   ',
(PID.TID 0000.0001) >   filename(4) = 'aimDDT',
(PID.TID 0000.0001) > &end
(PID.TID 0000.0001) 
(PID.TID 0000.0001) -----------------------------------------------------
(PID.TID 0000.0001)  DIAGNOSTICS_READPARMS: active diagnostics summary:
(PID.TID 0000.0001) -----------------------------------------------------
(PID.TID 0000.0001) Creating Output Stream: surfDiag
(PID.TID 0000.0001)  Frequency:  10
(PID.TID 0000.0001)  Levels:       1.
(PID.TID 0000.0001)  Fields:    ETAN     ETANSQ   DETADT2
(PID.TID 0000.0001) Creating Output Stream: dynDiag
(PID.TID 0000.0001)  Frequency:  10
(PID.TID 0000.0001)  Levels:       1.   2.   3.   4.   5.
(PID.TID 0000.0001)  Fields:    UVEL     VVEL     WVEL     THETA    SALT     UVELSQ   VVELSQ   THETASQ  UV_VEL_Z UVELMASS VVELMASS UTHMASS  VTHMASS  WVELTH   USLTMASS VSLTMASS WVELSLT
(PID.TID 0000.0001) Creating Output Stream: aimDiag
(PID.TID 0000.0001)  Frequency:  10
(PID.TID 0000.0001)  Levels:       1.
(PID.TID 0000.0001)  Fields:    UFLUX    VFLUX    OSR      OLR      RADSWG   RADLWG   HFLUX    EVAP     PRECON   PRECLS   CLDFRC   CLDPRS   CLDMAS   KM       WINDS    TS       QS       ENPREC   ALBVISDF SDIAG1
(PID.TID 0000.0001) Creating Output Stream: aimDDT
(PID.TID 0000.0001)  Frequency:  10
(PID.TID 0000.0001)  Levels:       1.   2.   3.   4.   5.
(PID.TID 0000.0001)  Fields:    RELHUM   DIABT    DIABQ    RADSW    RADLW    DTCONV   DTLS     DQCONV   DQLS
(PID.TID 0000.0001) -----------------------------------------------------
(PID.TID 0000.0001) 
(PID.TID 0000.0001) tile:   1 ; Read from file tile001.mitgrid
(PID.TID 0000.0001)   => XC YC DXF DYF RA XG YG DXV DYU RAZ DXC DYC RAW RAS DXG DYG
(PID.TID 0000.0001) tile:   2 ; Read from file tile002.mitgrid
(PID.TID 0000.0001)   => XC YC DXF DYF RA XG YG DXV DYU RAZ DXC DYC RAW RAS DXG DYG
(PID.TID 0000.0001) tile:   3 ; Read from file tile003.mitgrid
(PID.TID 0000.0001)   => XC YC DXF DYF RA XG YG DXV DYU RAZ DXC DYC RAW RAS DXG DYG
(PID.TID 0000.0001) tile:   4 ; Read from file tile004.mitgrid
(PID.TID 0000.0001)   => XC YC DXF DYF RA XG YG DXV DYU RAZ DXC DYC RAW RAS DXG DYG
(PID.TID 0000.0001) tile:   5 ; Read from file tile005.mitgrid
(PID.TID 0000.0001)   => XC YC DXF DYF RA XG YG DXV DYU RAZ DXC DYC RAW RAS DXG DYG
(PID.TID 0000.0001) tile:   6 ; Read from file tile006.mitgrid
(PID.TID 0000.0001)   => XC YC DXF DYF RA XG YG DXV DYU RAZ DXC DYC RAW RAS DXG DYG
(PID.TID 0000.0001) %MON XC_max                       =   1.7854351589505E+02
(PID.TID 0000.0001) %MON XC_min                       =  -1.7854351589505E+02
(PID.TID 0000.0001) %MON XC_mean                      =  -4.6999441375798E-15
(PID.TID 0000.0001) %MON XC_sd                        =   1.0355545336287E+02
(PID.TID 0000.0001) %MON XG_max                       =   1.8000000000000E+02
(PID.TID 0000.0001) %MON XG_min                       =  -1.7708797161002E+02
(PID.TID 0000.0001) %MON XG_mean                      =   1.8796250616675E+00
(PID.TID 0000.0001) %MON XG_sd                        =   1.0410625309932E+02
(PID.TID 0000.0001) %MON DXC_max                      =   3.2375185836900E+05
(PID.TID 0000.0001) %MON DXC_min                      =   1.1142031410131E+05
(PID.TID 0000.0001) %MON DXC_mean                     =   2.8605689051214E+05
(PID.TID 0000.0001) %MON DXC_sd                       =   3.4042087138252E+04
(PID.TID 0000.0001) %MON DXF_max                      =   3.2369947500827E+05
(PID.TID 0000.0001) %MON DXF_min                      =   1.2020820513318E+05
(PID.TID 0000.0001) %MON DXF_mean                     =   2.8605437324820E+05
(PID.TID 0000.0001) %MON DXF_sd                       =   3.4050524252539E+04
(PID.TID 0000.0001) %MON DXG_max                      =   3.2375195872773E+05
(PID.TID 0000.0001) %MON DXG_min                      =   1.0098378008791E+05
(PID.TID 0000.0001) %MON DXG_mean                     =   2.8603818508931E+05
(PID.TID 0000.0001) %MON DXG_sd                       =   3.4140406908005E+04
(PID.TID 0000.0001) %MON DXV_max                      =   3.2380418162750E+05
(PID.TID 0000.0001) %MON DXV_min                      =   8.0152299824136E+04
(PID.TID 0000.0001) %MON DXV_mean                     =   2.8603970633619E+05
(PID.TID 0000.0001) %MON DXV_sd                       =   3.4145142117723E+04
(PID.TID 0000.0001) %MON YC_max                       =   8.7940663871962E+01
(PID.TID 0000.0001) %MON YC_min                       =  -8.7940663871962E+01
(PID.TID 0000.0001) %MON YC_mean                      =   0.0000000000000E+00
(PID.TID 0000.0001) %MON YC_sd                        =   3.8676242969072E+01
(PID.TID 0000.0001) %MON YG_max                       =   9.0000000000000E+01
(PID.TID 0000.0001) %MON YG_min                       =  -9.0000000000000E+01
(PID.TID 0000.0001) %MON YG_mean                      =  -1.2094344438470E-15
(PID.TID 0000.0001) %MON YG_sd                        =   3.9086186579984E+01
(PID.TID 0000.0001) %MON DYC_max                      =   3.2375185836900E+05
(PID.TID 0000.0001) %MON DYC_min                      =   1.1142031410131E+05
(PID.TID 0000.0001) %MON DYC_mean                     =   2.8605689051214E+05
(PID.TID 0000.0001) %MON DYC_sd                       =   3.4042087138252E+04
(PID.TID 0000.0001) %MON DYF_max                      =   3.2369947500827E+05
(PID.TID 0000.0001) %MON DYF_min                      =   1.2020820513318E+05
(PID.TID 0000.0001) %MON DYF_mean                     =   2.8605437324820E+05
(PID.TID 0000.0001) %MON DYF_sd                       =   3.4050524252539E+04
(PID.TID 0000.0001) %MON DYG_max                      =   3.2375195872773E+05
(PID.TID 0000.0001) %MON DYG_min                      =   1.0098378008791E+05
(PID.TID 0000.0001) %MON DYG_mean                     =   2.8603818508931E+05
(PID.TID 0000.0001) %MON DYG_sd                       =   3.4140406908005E+04
(PID.TID 0000.0001) %MON DYU_max                      =   3.2380418162750E+05
(PID.TID 0000.0001) %MON DYU_min                      =   8.0152299824136E+04
(PID.TID 0000.0001) %MON DYU_mean                     =   2.8603970633619E+05
(PID.TID 0000.0001) %MON DYU_sd                       =   3.4145142117723E+04
(PID.TID 0000.0001) %MON RA_max                       =   1.0479260248419E+11
(PID.TID 0000.0001) %MON RA_min                       =   1.4019007022556E+10
(PID.TID 0000.0001) %MON RA_mean                      =   8.2992246709265E+10
(PID.TID 0000.0001) %MON RA_sd                        =   1.7509089299457E+10
(PID.TID 0000.0001) %MON RAW_max                      =   1.0480965274559E+11
(PID.TID 0000.0001) %MON RAW_min                      =   1.2166903467143E+10
(PID.TID 0000.0001) %MON RAW_mean                     =   8.2992246709235E+10
(PID.TID 0000.0001) %MON RAW_sd                       =   1.7481917919656E+10
(PID.TID 0000.0001) %MON RAS_max                      =   1.0480965274559E+11
(PID.TID 0000.0001) %MON RAS_min                      =   1.2166903467143E+10
(PID.TID 0000.0001) %MON RAS_mean                     =   8.2992246709235E+10
(PID.TID 0000.0001) %MON RAS_sd                       =   1.7481917919656E+10
(PID.TID 0000.0001) %MON RAZ_max                      =   1.0484349334619E+11
(PID.TID 0000.0001) %MON RAZ_min                      =   8.8317900612505E+09
(PID.TID 0000.0001) %MON RAZ_mean                     =   8.2992246709235E+10
(PID.TID 0000.0001) %MON RAZ_sd                       =   1.7482297311044E+10
(PID.TID 0000.0001)  MDSREADFIELD: opening global file: topo.cpl_FM.bin
(PID.TID 0000.0001) // =======================================================
(PID.TID 0000.0001) // Field Model R_low (ini_masks_etc) at iteration          1
(PID.TID 0000.0001) // CMIN =          1.000000000000000E+32
(PID.TID 0000.0001) // CMAX =         -1.000000000000000E+32
(PID.TID 0000.0001) // CINT =          0.000000000000000E+00
(PID.TID 0000.0001) // SYMBOLS (CMIN->CMAX): -abcdefghijklmnopqrstuvwxyz+
(PID.TID 0000.0001) //                  0.0: .
(PID.TID 0000.0001) // RANGE I (Lo:Hi:Step):(  -1: 194:   1)
(PID.TID 0000.0001) // RANGE J (Lo:Hi:Step):(  34:  -1:  -1)
(PID.TID 0000.0001) // RANGE K (Lo:Hi:Step):(   1:   1:   1)
(PID.TID 0000.0001) // =======================================================
(PID.TID 0000.0001) // =======================================================
(PID.TID 0000.0001) // END OF FIELD                                          =
(PID.TID 0000.0001) // =======================================================
(PID.TID 0000.0001) 
(PID.TID 0000.0001) // =======================================================
(PID.TID 0000.0001) // Field Model Ro_surf (ini_masks_etc) at iteration          1
(PID.TID 0000.0001) // CMIN =          4.905667583685931E+04
(PID.TID 0000.0001) // CMAX =          1.000000000000000E+05
(PID.TID 0000.0001) // CINT =          1.886789783820026E+03
(PID.TID 0000.0001) // SYMBOLS (CMIN->CMAX): -abcdefghijklmnopqrstuvwxyz+
(PID.TID 0000.0001) //                  0.0: .
(PID.TID 0000.0001) // RANGE I (Lo:Hi:Step):(  -1: 194:   1)
(PID.TID 0000.0001) // RANGE J (Lo:Hi:Step):(  34:  -1:  -1)
(PID.TID 0000.0001) // RANGE K (Lo:Hi:Step):(   1:   1:   1)
(PID.TID 0000.0001) // =======================================================
(PID.TID 0000.0001) K =   1
(PID.TID 0000.0001) //                I=8       I=18      I=28      I=34      I=44      I=54      I=64      I=70      I=80      I=90      I=96      I=106     I=116     I=126     I=132     I=142     I=152     I=162     I=168     I=178     I=188
(PID.TID 0000.0001) // |--J--|*01234567|901234567|901234567|901234123|567890123|567890123|567890123|563456789|123456789|123456789|123456785|789012345|789012345|789012345|789078901|345678901|345678901|345678901|901234567|901234567|901234567|901234
(PID.TID 0000.0001) //     34 ..++++++++++++++++zxwwwwwy++++nmno....unny+zzzzzxxwwrnmmmqsuvvxxw+++++....++++++++++++xxyzyxwtmlnnoy++++++....++++++++++++++++++++++++++++++++....+++++++++++++++++yxxwwxy++++++++....++++++++++++++++++++++++++++++++..
(PID.TID 0000.0001) //     33 ..++++++++++++++++wttvwww++ywqstuu....uooy+yyzzyxwwqoomlmqtvutwyy+++++....+++++++++++xxxyyyxwunmnopx++++++....++++++++++++++++++++++++++++++++....+++++++++++++++++zyxwwwwy+++++++....++++++++++++++++++++++++++++++++..
(PID.TID 0000.0001) //     32 ++++++++++++++++++wy+y+ww+xsrtwxyxvoyxvonrywwzywommlmpppqtttsuy++yy++yyy++++++++++++yxxyyxxxxvqmnpqw+++++++++++++++++++++++++++++++++++++++++++++++++++++++++++++++zyxwwwww+++++++++++++++++++++++++++++++++++++++++++++
(PID.TID 0000.0001) //     31 ++++++++++++++++wv++++++y+yxywxxyywqyywqnotsswwphglqttrnnqssswz++++++++++++++++++++zxxxyyxxyxwuport++++++++++++++++++++++++++++++++++++++++++++++++++++++++++++++++zyyxwwwww++++++++++++++++++++++++++++++++++++++++++++
(PID.TID 0000.0001) //     30 ++++++++++++++++w+++++++++++++wwxzyuxzyumnstsspmfdhmlhgfekosuxz+++++++++++++++++++++xxxyzyyyxwwsptx+++++++++++++++++++++++++++++++++++++++++++++++++++++++++++++zzzzyyxxwxxwwy++++++++++++++++++++++++++++++++++++++++++
(PID.TID 0000.0001) //     29 ++++++++++++++++++wwx+++++++++wwxyzxxyzxrnosspllkeabbaabdhmsvyzz++++++++++++++++++zxwwx++zyyxxwtps++++++++++++++++++++++++++++++++++++++++++++++++++++++++++++++yyzzyxxxxxxxxxz+++++++++++++++++++++++++++++++++++++++++
(PID.TID 0000.0001) //     28 +++++++++++++++xsvwxxxy+zzzzywwwwxyzwxyzypnorqnrwnc--aaabelsvxyx++++++++++++++++++zxxxx+++zyxxwvpr++++++++++++++++++++++++++++++++++++++++++++++++++++++++++++++yyzzyyxxyyyyyyzz++++++++++++++++++++++++++++++++++++++++
(PID.TID 0000.0001) //     27 +++++++++++++++vvwxxxxxxzzzyxwwvvwxyvwxyz+++trrwzwkdabccbenvwxxw++++++++++++++++++++xxyz++zyxxxwst+++++++++++++++++++++++++++++++++++++++++++++++++++++++++++++ywyz+zyxxyzz++zzz++++++++++++++++++++++++++++++++++++++++
(PID.TID 0000.0001) //     26 ++++++++++++++yxxyxwwwwxyyxxyxyyvwwxvwwxz++++yyyyyxvnmmmhhnuwxxy++++++++++++++++++++++++++zyxxxwss++++++++++++++++++++++++++++++++++++++++++++++++++++++++++++ywwx++zyyyxxxz++++z+++z+++++++++++++++++++++++++++++++++++
(PID.TID 0000.0001) //     25 +++++++++++++yyyyyxvuvwwwxwxyxy+vvwxvvwxzzx++++zxxxyxywwqorwxyy+++++++++++++++++++++++x++yyyxxxwss++++++++++++++++++++++++++++++++++++++++++++++++++++++++++++ywvwz+zzzwmkmrwyyzz+++z+++++++++++++++++++++++++++++++++++
(PID.TID 0000.0001) //     24 +++++++++++++yyyyyxwwwwstwwxyxy+wswxwswxyzz+++++xxxxy++xutvx++++++++++++++++++++++++++xx+yyzyxxvst++++++++++++++++++++++++++++++++++++++++++++++++++++++++++++ywxz++zzukgfghkqvxzz++zz++++++++++++++++++++++++++++++++++
(PID.TID 0000.0001) //     23 +++++++++++++zyyyyxxwwxxwwwxxxw++pvw+pvwxz++++++yxxy+++ywwwx+++++++++++++++++++++++oq+++xxzzyyxvsr++++++++++++++++++++++++++++++++++++++++++++++z+++++++++++++trwy+++wher+yumhkrwxy+wxy+++++++++++++++ww++++++++++++++++
(PID.TID 0000.0001) //     22 +++++++++++++zyyyyxyxxyyxwwwxxvr++wy++wy++++++++yxy+++++yxxw+++++++++++++++++++++++vlr+++x++zzywusw+++++++++++++++++++++++++++++++++++++++++++++xy++++++++++++wpqvy+xrht++++++xuuvwwuvww+++++++++++++lhhknw+++++++++++++
(PID.TID 0000.0001) //     21 +++++++++++++yxxyyyyxxyyxwwwxxrnv+++v++++++++++++yy++++++zyxy++++++++++++++++++++++vkkn++++++++xuutw++++++++++++++++++++++++++++++++++++++++++++xxx++++++++++++ywqsuop++++++++++++wu++wuwy++++++++++pkhghkklw+++++++++++
(PID.TID 0000.0001) //     20 +++++++++++++yxxyyyxxwxxxwwxxxpmqvwxqvwx+++++++++y++++++++++++++++++++++++++++++++++khknwt++++++wwwx++++++++++++++++++++++++++++++++++++++++++++xxxxxz++++++++++++wuw+++++++++++++++++++++++++x+++++okhhhhklr+++++++++++
(PID.TID 0000.0001) //     19 ++++++++++++++yyyyyyxwwwxwwxxwrnqwxyqwxy+++++++++++++++++y+++++++++++++++++++++++x++qlkmxx++++++xyy+++++++++++++++++++++++++++++++++++++++++++++yyxxwxz+++++++y++++++++++++++++++++++++++++++++ws++xqkhgghlow+++++++++++
(PID.TID 0000.0001) //     18 +++++++++++++++++++++wwxxxxwwwutwxz+wxz+++++++++++++++++yy++++yy++++++++w++++z++++++++rs++++++++++++++++++++++++++++++++++++++++++++++++++++++++yyyyxxz++++++y++++++++++++++++++++++++++++++++++xv+xqlhgfghkr+++++++++++
(PID.TID 0000.0001) //     17 +++++++++++++++++++++yxxyyxwturuy+++y++++++++++++++++++++yy++ywy++++++++v+++zy++++++++++++++++++++y+++++++++++++++++++++++++++++++++++++++++++++xxyzzyz++++zw+++++++++++++++++++++++++++++++++++xuwupkhgffghkq++++++++++
(PID.TID 0000.0001) //     16 +++++++++++++++++++++zxxxxxvrtqtz+++z+++++++++++++++++++++y++yy++++++z+++wwzz++++++++++++++++++++xxy++++++++++++++++++++++++++++++++++++++++++++xxyyyzz++++yw+++++++++++++++++++++++++++++++++++xsonnkhhggghho++++++++++
(PID.TID 0000.0001) //     15 zzzy++++++++++++++++++yxxxxvsusv+++++++++++++++++++++++++++z++++++++++yw+ytxy++xw++++++++++++++++wwx++++++++++++++++++++++++++++++++++++++++y+++yxxxxyz++++y+++++++++++++++++++++++++++++++++++++uoqsvkkhhhhkp++++++++++
(PID.TID 0000.0001) //     14 yyyxxy++++++++++++++++ywwwwvtttw++++++++++++++++++++++++++++++++++++++++++twxzzxwwwx++++++++++++zxwx+++++++++++++++++++++++++++++++++++++++++yy+xxwwxxxyz++v+++++++++++++++++++++++++++++++++++++woux+xmkhhklv++++++++++
(PID.TID 0000.0001) //     13 yxxxx++++++++++++++++++vvvvutsux+++++++++++++++++++++++++++++++++++++++++yvwxz++zzyy+++++++++++zyxwxx+++++++++++++++++++++++++++++++++++++++++++wvuttvwwvqot++++++++++++++++++++++++++++++++++++++vwy++plkkko+++++++++++
(PID.TID 0000.0001) //     12 xwwwy+++++++++++++++++xsuvuuuuwx++++++++++++++++++++++++++++++++++++++++++wwxzzzzzyy+++++++z+++xwwv++x++++++++++++++++++++++++++++++++++++++++++uqnmlossqoq++++++++++++++++++++++++++++++++++++++++++++qlkklw+++++++++++
(PID.TID 0000.0001) //     11 wwww++++++++++++++++++wtvvvvvvwy+++y+++y++++++++++++++++++++++++++zzzz+++wwwxyzzzzzz+++++zzyzywvtrv+++++++++++++++++++++++++++++++++++++++++++++pmmllnqpqw+++++++++++++++++++++++++++++++++++++++++++++qmmmq++++++++++++
(PID.TID 0000.0001) //     10 wwwx++++++++++++++++++xuvwwvuwy+++xw++xw+++++++++++++++++++++++++zyyyyzzywwwxyzzzzzzzzy++zxxxywvtsx+++++++++++++++++++++++++++++++++++++++++++++onnnoquw++++++++++++++++++++++++++++++++++++++++++++++++ww++++++++++++++
(PID.TID 0000.0001) //      9 wwwy+++++++++++++++++++tuvwvvw++++w+++w+++++++++++++++++++++++++zzyxyyyy+++yzzzzzzzzyxxzzywwxxyxxwx+++++++++++++++++++++++++++++++++++++++++++++rponrwy+++++++++++++++++++++++++++++++++++++++++++++++++++++++++++++++++
(PID.TID 0000.0001) //      8 wwy++++++++++++++++++++tuvvvwy++++x+++x+++++++++++++++++++++++yxxyxxxxyyyx+++zzzzzzyxyz+zzwwxxyxxwwxy+++++++++++++++++++++++++++++++++++++++++++tqposx++++++++++++++++++++++++++++++++++++++++++++++++++++++++++++++++++
(PID.TID 0000.0001) //      7 w++++++++++++++++++++++wvvusuz++++y+++y+++++++++++++++++++++++yxxxxxxxyzxsy++zzzzzzyyzzzzzxxxxwwwvvvxx+++++++++++++++++++++++++++++++++yxxxyy++++wxyy+++++++++++++++++++++++++++++++++++++++++++++++++++++++++++++++++++
(PID.TID 0000.0001) //      6 +++++++++++++++++++++++ywusqw+++++++++++++++++++++++++++++++++yxxxxxxxz+yrw++wzzzzyxyzzzzzxxxwuuwwxwxx++++++++++++++++++++++++++++++++zyyyyxxy++++++++++++++++++++++++++++++++++++++++++++++++++++++++++++++++++++++++++
(PID.TID 0000.0001) //      5 ++++++++++++++++++++++++vtrv++++++++++++++++++++++++++++++++++yxxyyyyyzzwtq++py++zyxzzzzzyxxxwsuwwxxxx+++++++++++++++++++++++++++++++yyxyzzzyy++++++++++++++++++++++++++++++++++++++++++++++++++++++++++++++++++++++++++
(PID.TID 0000.0001) //      4 ++++++++++++++++++++++++yyy+++++++++++++++++++++++++++++++++++yyyzzzzzzyxwsnnny++zyyyyzzywvtuvtvwwxxwx+++y+++y++++++++++++++++++w+++xxyyzzzzzz++++++++++++++++++++++++++++++++++++++++++++++++++++++++++++++++++++++++++
(PID.TID 0000.0001) //      3 +++++++++++++++++++++++++++++++++++++++++++++++++++++++++++++++++++++zzyxxtmnvz+zzzyxxxxwqpnotsuvwyxwy++++y+++y++++++++++++++++wv+++zyzzzzzyz+++++++++++++++++++++++++++++++++++++++++++++++++++++++++++++++++++++++++++
(PID.TID 0000.0001) //      2 ++++++++++++++++++++++++++++++++++++++++++++++++++++++++++++++++++++++zyyyunny+zzzzzxxwwrnmmmqsuvvxxw+++++y+++y++++++++++++++++w++++zyyz+zyyy+++++++++++++++++++++++++++++++++++++++++++++++++++++++++++++++++++++++++++
(PID.TID 0000.0001) //      1 ++++++++++++++++++++++++++++++++++++++++++++++++++++++++++++++++++++++++yxuooy+yyzzyxwwqoomlmqtvutwyy+++++y+++y++++++++++++++++y++++zyyyzzzzz+++++++++++++++++++++++++++++++++++++++++++++++++++++++++++y+++++++++++++++
(PID.TID 0000.0001) //      0 ..++++++++++++++++++++++++++++++++....++++++++++++++++++++++++++++++++....vonrywwzywommlmpppqtttsuy++yy++y....y+++++++++++++++z++++zyyxxxyzz++....++++++++++++++++++++++++++++++++....++++++++++++++++++y+++++++yyz+++..
(PID.TID 0000.0001) //     -1 ..++++++++++++++++++++++++++++++++....++++++++++++++++++++++++++++++++....wqnotsswwphglqttrnnqssswz+++++++....+++++++++++++++++++++zyyxxxyz+++....++++++++++++++++++++++++++++++++....+++++++++++++++++y+++++++yxyzzyz..
(PID.TID 0000.0001) // =======================================================
(PID.TID 0000.0001) // END OF FIELD                                          =
(PID.TID 0000.0001) // =======================================================
(PID.TID 0000.0001) 
(PID.TID 0000.0001) // =======================================================
(PID.TID 0000.0001) // Field hFacC at iteration          1
(PID.TID 0000.0001) // CMIN =          2.000000000000000E-01
(PID.TID 0000.0001) // CMAX =          1.000000000000000E+00
(PID.TID 0000.0001) // CINT =          2.962962962962963E-02
(PID.TID 0000.0001) // SYMBOLS (CMIN->CMAX): -abcdefghijklmnopqrstuvwxyz+
(PID.TID 0000.0001) //                  0.0: .
(PID.TID 0000.0001) // RANGE I (Lo:Hi:Step):(  -1: 194:   1)
(PID.TID 0000.0001) // RANGE J (Lo:Hi:Step):(  34:  -1:  -1)
(PID.TID 0000.0001) // RANGE K (Lo:Hi:Step):(   1:   1:   1)
(PID.TID 0000.0001) // =======================================================
(PID.TID 0000.0001) K =   1
(PID.TID 0000.0001) //                I=8       I=18      I=28      I=34      I=44      I=54      I=64      I=70      I=80      I=90      I=96      I=106     I=116     I=126     I=132     I=142     I=152     I=162     I=168     I=178     I=188
(PID.TID 0000.0001) // |--J--|*01234567|901234567|901234567|901234123|567890123|567890123|567890123|563456789|123456789|123456789|123456785|789012345|789012345|789012345|789078901|345678901|345678901|345678901|901234567|901234567|901234567|901234
(PID.TID 0000.0001) //     34 ..++++++++++++++++qe--bbap++++...........k+vtutskgc-..........hj-+++++....++++++++++++hiorojd......k++++++....++++++++++++++++++++++++++++++++....+++++++++++++++++mgecdel++++++++....++++++++++++++++++++++++++++++++..
(PID.TID 0000.0001) //     33 ..++++++++++++++++b...bac++k-............k+pqvspec-...........elk+++++....+++++++++++ihknomid......e++++++....++++++++++++++++++++++++++++++++....+++++++++++++++++tnhdc--l+++++++....++++++++++++++++++++++++++++++++..
(PID.TID 0000.0001) //     32 ++++++++++++++++++ak+k+c-+e...bilg..lg....kaaro-..............k++kl++kkk++++++++++++mgillkije......d++++++++++++++++++++++++++++++++++++++++++++++++++++++++++++++ysnheba--+++++++++++++++++++++++++++++++++++++++++++++
(PID.TID 0000.0001) //     31 ++++++++++++++++-.++++++k+kfkdeipp-.pp-......db..............ar++++++++++++++++++++vkfilljikga.....+++++++++++++++++++++++++++++++++++++++++++++++++++++++++++++++yspmhbadcc++++++++++++++++++++++++++++++++++++++++++++
(PID.TID 0000.0001) //     30 ++++++++++++++++c+++++++++++++-citk.itk......................ju+++++++++++++++++++++hfipsnkmhc-...k+++++++++++++++++++++++++++++++++++++++++++++++++++++++++++++wuvrmlkgdhha-l++++++++++++++++++++++++++++++++++++++++++
(PID.TID 0000.0001) //     29 ++++++++++++++++++baf+++++++++-bfmvkfmvk.....................ouw++++++++++++++++++rkddi++tpoifa...++++++++++++++++++++++++++++++++++++++++++++++++++++++++++++++qoutnjjgfijgfhr+++++++++++++++++++++++++++++++++++++++++
(PID.TID 0000.0001) //     28 +++++++++++++++e..-fhjm+uuvtl---bfnwbfnwl.......-............kki++++++++++++++++++rjeej+++uoigc...++++++++++++++++++++++++++++++++++++++++++++++++++++++++++++++lovwolkjnpooqqrv++++++++++++++++++++++++++++++++++++++++
(PID.TID 0000.0001) //     27 +++++++++++++++..egiifekstspjd-..beo.beot+++...bta..........bjhd++++++++++++++++++++kint++xpige-..+++++++++++++++++++++++++++++++++++++++++++++++++++++++++++++ldmwytniiouwxxxvw++++++++++++++++++++++++++++++++++++++++
(PID.TID 0000.0001) //     26 ++++++++++++++kfimidbcdgkmiknill.-bj.-bjw++++llpmpe.........bfgl++++++++++++++++++++++++++vpjiga..++++++++++++++++++++++++++++++++++++++++++++++++++++++++++++m--iyzvnmnffiszxxxv+++v+++++++++++++++++++++++++++++++++++
(PID.TID 0000.0001) //     25 +++++++++++++qmmonf...b-agcgnil+..bj..bjutg++++vhhknhkc-...-ill+++++++++++++++++++++++j++qopkih-..++++++++++++++++++++++++++++++++++++++++++++++++++++++++++++l-.euzwtr-....dlpus+++s+++++++++++++++++++++++++++++++++++
(PID.TID 0000.0001) //     24 ++++++++++++xplmnng--a-..achmil+-.-i-.-inus+++++ighho++e...h++++++++++++++++++++++++++jh+pqslih...++++++++++++++++++++++++++++++++++++++++++++++++++++++++++++lbkrxxxu.........isw++sw++++++++++++++++++++++++++++++++++
(PID.TID 0000.0001) //     23 ++++++++++++ysnmmlhf-bifdcbgijc++..c+..cht++++++lgil+++ob-bg+++++++++++++++++++++++..+++jjrwpli...++++++++++++++++++++++++++++++++++++++++++++++v+++++++++++++..-qyyxc...+l.....afm+afm+++++++++++++++-c++++++++++++++++
(PID.TID 0000.0001) //     22 ++++++++++++ysonmmjkfhmnia-cfi..++al++al++++++++ofk+++++nigc+++++++++++++++++++++++...+++h++rrna..a+++++++++++++++++++++++++++++++++++++++++++++km++++++++++++e...nxi...++++++e...-d..-d+++++++++++++.....-+++++++++++++
(PID.TID 0000.0001) //     21 ++++++++++++yojkmnmlhjmmha-cfe...+++.++++++++++++ll++++++spjl++++++++++++++++++++++....++++++++j...a++++++++++++++++++++++++++++++++++++++++++++fgi++++++++++++l-.....++++++++++++e.++e.-l++++++++++........-+++++++++++
(PID.TID 0000.0001) //     20 +++++++++++++lfhlnljecfiidbgie....af..af+++++++++l+++++++++y++++++++++++++++++++++++....-.++++++-cej++++++++++++++++++++++++++++++++++++++++++++iihhjr++++++++++++-.c+++++++++++++++++++++++++j+++++.........+++++++++++
(PID.TID 0000.0001) //     19 ++++++++++++++lkoqpqi--bfdcegd...-fm.-fm+++++++++++++++++q+++++++++++++++++++++++j++....jj++++++kmp+++++++++++++++++++++++++++++++++++++++++++++llkidfsz++++++l++++++++++++++++++++++++++++++++b.++j........a+++++++++++
(PID.TID 0000.0001) //     18 +++++++++++++++++++++bbehgeb--..-kr+-kr+++++++++++++++++ll++++ll++++++++-++++t++++++++..++++++++++++++++++++++++++++++++++++++++++++++++++++++++llnoihr++++++l++++++++++++++++++++++++++++++++++j.+j.........+++++++++++
(PID.TID 0000.0001) //     17 +++++++++++++++++++++lghlkh-....lx++lx+++++++++++++++++++lp++lal++++++++.+++ro++++++++++++++++++++o+++++++++++++++++++++++++++++++++++++++++++++jkorrqv++++tc+++++++++++++++++++++++++++++++++++j.a...........++++++++++
(PID.TID 0000.0001) //     16 yy+++++++++++++++++++rhhkkg.....r+++r+++++++++++++++++++++l++pl++++++r+++abqw++++++++++++++++++++fim++++++++++++++++++++++++++++++++++++++++++++iimoorwz+++n-+++++++++++++++++++++++++++++++++++j.............++++++++++
(PID.TID 0000.0001) //     15 sstm++++++++++++++++++lfghe.....+++++++++++++++++++++++++++s++++++++++l-+k.eq++fc++++++++++++++++dbj++++++++++++++++++++++++++++++++++++++++o+++kjijkntx+++l+++++++++++++++++++++++++++++++++++++.............++++++++++
(PID.TID 0000.0001) //     14 pnnghl++++++++++++++++l--aa....a++++++++++++++++++++++++++++++++++++++++++.-kxwjccbj++++++++++++ufah+++++++++++++++++++++++++++++++++++++++++kl+geddegins++.+++++++++++++++++++++++++++++++++++++a..i+j.......++++++++++
(PID.TID 0000.0001) //     13 mhhei++++++++++++++++++........e+++++++++++++++++++++++++++++++++++++++++k.-guy+vsll+++++++++++uqe-jj+++++++++++++++++++++++++++++++++++++++++++a.....--....++++++++++++++++++++++++++++++++++++++.cn++......+++++++++++
(PID.TID 0000.0001) //     12 hedcn+++++++++++++++++g.......-g+++++++++++++++++++++++++++++++++++++x++++bbgsvwwuqp+++++++r+++gb-.++k++++++++++++++++++++++++++++++++++++++++++...........++++++++++++++++++++++++++++++++++++++++++++.....a+++++++++++
(PID.TID 0000.0001) //     11 bbcd++++++++++++++++++c.......al+++l+++l++++++++++++++++++++++++++sttt+++cabfqstuutu+++++wsqtna....+++++++++++++++++++++++++++++++++++++++++++++.........b+++++++++++++++++++++++++++++++++++++++++++++.....++++++++++++
(PID.TID 0000.0001) //     10 aa-e++++++++++++++++++e..--..-k+++gd++gd+++++++++++++++++++++++++vkknpswk-cafqsrrttuusqxytiijkb...j+++++++++++++++++++++++++++++++++++++++++++++.......-++++++++++++++++++++++++++++++++++++++++++++++++-a++++++++++++++
(PID.TID 0000.0001) //      9 d--l+++++++++++++++++++...-..c++++a+++a+++++++++++++++++++++++++urlkkmoq+++prtsrsuttmghtxnabejljh-j+++++++++++++++++++++++++++++++++++++++++++++.....-l+++++++++++++++++++++++++++++++++++++++++++++++++++++++++++++++++
(PID.TID 0000.0001) //      8 c-l++++++++++++++++++++.....-o++++f+++f+++++++++++++++++++++++ohilkihhmpke++yvsstutqjnsxxrddfikie--ko+++++++++++++++++++++++++++++++++++++++++++.....f++++++++++++++++++++++++++++++++++++++++++++++++++++++++++++++++++
(PID.TID 0000.0001) //      7 c++++++++++++++++++++++a.....s++++l+++l+++++++++++++++++++++++nggiigfhouf.k++rvtstsnmuxwvshghgc--...ek+++++++++++++++++++++++++++++++++piffkk++++dekk+++++++++++++++++++++++++++++++++++++++++++++++++++++++++++++++++++
(PID.TID 0000.0001) //      6 +++++++++++++++++++++++l-...a+++++++++++++++++++++++++++++++++nhhiiggjtyk.-++-swwumhowxwwtiihb..-bfafk++++++++++++++++++++++++++++++++sklnlifm++++++++++++++++++++++++++++++++++++++++++++++++++++++++++++++++++++++++++
(PID.TID 0000.0001) //      5 ++++++++++++++++++++++++....++++++++++++++++++++++++++++++++++oijlnmnqvxd..++.l+zuliquvxwqkhe-..-bjgge+++++++++++++++++++++++++++++++nmjottuqp++++++++++++++++++++++++++++++++++++++++++++++++++++++++++++++++++++++++++
(PID.TID 0000.0001) //      4 ++++++++++++++++++++++++kkk+++++++++++++++++++++++++++++++++++qmosuutttqeb....m++toooorul-......--jgck+++k+++k++++++++++++++++++-+++jglpsuuvvu++++++++++++++++++++++++++++++++++++++++++++++++++++++++++++++++++++++++++
(PID.TID 0000.0001) //      3 +++++++++++++++++++++++++++++++++++++++++++++++++++++++++++++++++++++vrnii....tyvtrqjhhh-........-kjak++++k+++k++++++++++++++++-.++xtprtvwtpr+++++++++++++++++++++++++++++++++++++++++++++++++++++++++++++++++++++++++++
(PID.TID 0000.0001) //      2 ++++++++++++++++++++++++++++++++++++++++++++++++++++++++++++++++++++++sppl...k+vtutskgc-..........hj-+++++k+++k++++++++++++++++-++++wqpuyxqnp+++++++++++++++++++++++++++++++++++++++++++++++++++++++++++++++++++++++++++
(PID.TID 0000.0001) //      1 ++++++++++++++++++++++++++++++++++++++++++++++++++++++++++++++++++++++++pg...k+pqvspec-...........elk+++++k+++k++++++++++++++++l++++somotvtrs+++++++++++++++++++++++++++++++++++++++++++++++++++++++++++l+++++++++++++++
(PID.TID 0000.0001) //      0 ..++++++++++++++++++++++++++++++++....++++++++++++++++++++++++++++++++........kaaro-..............k++kl++k....k+++++++++++++++r+++xtpmhhjqtv++....++++++++++++++++++++++++++++++++....++++++++++++++++++k+++++++mpu+++..
(PID.TID 0000.0001) //     -1 ..++++++++++++++++++++++++++++++++....++++++++++++++++++++++++++++++++....-......db..............ar+++++++....+++++++++++++++++++++tnkhfgnt+++....++++++++++++++++++++++++++++++++....+++++++++++++++++o+++++++kfqvrps..
(PID.TID 0000.0001) // =======================================================
(PID.TID 0000.0001) // END OF FIELD                                          =
(PID.TID 0000.0001) // =======================================================
(PID.TID 0000.0001) 
(PID.TID 0000.0001) // =======================================================
(PID.TID 0000.0001) // Field hFacW at iteration          1
(PID.TID 0000.0001) // CMIN =          2.000000000000000E-01
(PID.TID 0000.0001) // CMAX =          1.000000000000000E+00
(PID.TID 0000.0001) // CINT =          2.962962962962963E-02
(PID.TID 0000.0001) // SYMBOLS (CMIN->CMAX): -abcdefghijklmnopqrstuvwxyz+
(PID.TID 0000.0001) //                  0.0: .
(PID.TID 0000.0001) // RANGE I (Lo:Hi:Step):(  -1: 194:   1)
(PID.TID 0000.0001) // RANGE J (Lo:Hi:Step):(  34:  -1:  -1)
(PID.TID 0000.0001) // RANGE K (Lo:Hi:Step):(   1:   1:   1)
(PID.TID 0000.0001) // =======================================================
(PID.TID 0000.0001) K =   1
(PID.TID 0000.0001) //                I=8       I=18      I=28      I=34      I=44      I=54      I=64      I=70      I=80      I=90      I=96      I=106     I=116     I=126     I=132     I=142     I=152     I=162     I=168     I=178     I=188
(PID.TID 0000.0001) // |--J--|*01234567|901234567|901234567|901234123|567890123|567890123|567890123|563456789|123456789|123456789|123456785|789012345|789012345|789012345|789078901|345678901|345678901|345678901|901234567|901234567|901234567|901234
(PID.TID 0000.0001) //     34 ..++++++++++++++++qe---baap+++............kvtttskgc-...........h--++++k...++++++++++++hhioojd.......k++++++...+++++++++++++++++++++++++++++++++...+++++++++++++++++mgeccdel++++++++...+++++++++++++++++++++++++++++++++.
(PID.TID 0000.0001) //     33 .+++++++++++++++++b....aac+k-.............kppqspec-............ekk++++k+.++++++++++++ihhknmid.......e+++++++.+++++++++++++++++++++++++++++++++++.++++++++++++++++++tnhdc---l++++++++.+++++++++++++++++++++++++++++++++++
(PID.TID 0000.0001) //     32 ++++++++++++++++++aakkkc--e....big..ig.....aaao-...............k+kkl+kkk++++++++++++mggilkiie.......d+++++++++++++++++++++++++++++++++++++++++++++++++++++++++++++ysnheba---++++++++++++++++++++++++++++++++++++++++++++
(PID.TID 0000.0001) //     31 ++++++++++++++++-..+++++kkkffddeip-.ip-.......b...............ar+++++++++++++++++++vkffiljiiga......++++++++++++++++++++++++++++++++++++++++++++++++++++++++++++++yspmhbaaccc+++++++++++++++++++++++++++++++++++++++++++
(PID.TID 0000.0001) //     30 ++++++++++++++++cc++++++++++++--cik.cik.......................ju++++++++++++++++++++hffipnkkhc-....k++++++++++++++++++++++++++++++++++++++++++++++++++++++++++++wuurmlkgddha--l+++++++++++++++++++++++++++++++++++++++++
(PID.TID 0000.0001) //     29 ++++++++++++++++++baaf++++++++--bfmkbfmk......................ouw+++++++++++++++++rkdddi+tpoifa....+++++++++++++++++++++++++++++++++++++++++++++++++++++++++++++qootnjjgffigffhr++++++++++++++++++++++++++++++++++++++++
(PID.TID 0000.0001) //     28 +++++++++++++++e...-fhjmuuutl----bfn-bfnl.....................kii+++++++++++++++++rjeeej++uoigc....+++++++++++++++++++++++++++++++++++++++++++++++++++++++++++++llovolkjjnoooqqrv+++v+++++++++++++++++++++++++++++++++++
(PID.TID 0000.0001) //     27 +++++++++++++++...egifeeksspjd-...be..beot++....ba...........bhdd+++++++++++++++++++kiint+xpige-...++++++++++++++++++++++++++++++++++++++++++++++++++++++++++++lddmwtniiiouwxxvvw+++w+++++++++++++++++++++++++++++++++++
(PID.TID 0000.0001) //     26 ++++++++++++++kffiidbbcdgkiikiil..-b..-bjw+++lllmme..........bfgl+++++++++++++++++++++++++vpjiga...+++++++++++++++++++++++++++++++++++++++++++++++++++++++++++m---iyvnmmfffisxxxvv++vv++++++++++++++++++++++++++++++++++
(PID.TID 0000.0001) //     25 +++++++++++++qmmmnf....--accgiil...b...bjtgg+++vhhhkhhc-....-ill++++++++++++++++++++++jj+qookih-...+++++++++++++++++++++++++++++++++++++++++++++++++++++++++++l-..euwtr-.....dlpss++ss++++++++++++++++++++++++++++++++++
(PID.TID 0000.0001) //     24 ++++++++++++xpllmng----...achiil-..--..-inss++++igghho+e....h+++++++++++++++++++++++++jhhppqlih....+++++++++++++++++++++++++++++++++++++++++++++++++++++++++++lbbkrxxu..........isw+isw+++++++++++++++++++++++++++++++++
(PID.TID 0000.0001) //     23 ++++++++++++ysnmmlhf--bfdcbbgicc+...+...cht+++++lggil++ob--bg++++++++++++++++++++++...++jjjrpli....+++++++++++++++++++++++++++++++++++++++++++++vv++++++++++++...-qyxc....l......afm.afm++++++++++++++--c+++++++++++++++
(PID.TID 0000.0001) //     22 ++++++++++++ysonmmjjffhmia--cf...+aa.+aal+++++++offk++++nigcc++++++++++++++++++++++....++hh+rrna...a++++++++++++++++++++++++++++++++++++++++++++hkm+++++++++++e....ni....+++++e....-...-d++++++++++++......-++++++++++++
(PID.TID 0000.0001) //     21 ++++++++++++yojjkmmlhhjmha--ce....++..+++++++++++lll+++++spjjl+++++++++++++++++++++.....+++++++j....a+++++++++++++++++++++++++++++++++++++++++++ffgi+++++++++++l-......+++++++++++e.++e..-l+++++++++.........-++++++++++
(PID.TID 0000.0001) //     20 +++++++++++++lffhlljeccfidbbge.....a...af++++++++ll++++++++yy+++++++++++++++++++++++.......+++++--cej+++++++++++++++++++++++++++++++++++++++++++iihhhjr+++++++++++-..c++++++++++++++++++++++++jj++++..........++++++++++
(PID.TID 0000.0001) //     19 ++++++++++++++lkkoppi---bdcced....-f..-fm++++++++++++++++qq++++++++++++++++++++++jj+.....jj+++++kkmp++++++++++++++++++++++++++++++++++++++++++++llkiddfsz+++++ll+++++++++++++++++++++++++++++++b..+j.........a++++++++++
(PID.TID 0000.0001) //     18 w++++++++++++++++++++bbbegeb--...-kr.-kr++++++++++++++++lll+++lll+++++++--+++tt+++++++...+++++++++++++++++++++++++++++++++++++++++++++++++++++++lllnihhr+++++ll+++++++++++++++++++++++++++++++++j..j..........++++++++++
(PID.TID 0000.0001) //     17 u++++++++++++++++++++lgghkh-.....lx+.lx++++++++++++++++++llp+laal+++++++..++roo+++++++++++++++++++oo++++++++++++++++++++++++++++++++++++++++++++jjkorqqv+++tcc++++++++++++++++++++++++++++++++++j..............+++++++++
(PID.TID 0000.0001) //     16 vyy++++++++++++++++++rhhhkg......r++.r++++++++++++++++++++ll+pll+++++rr++aabqw+++++++++++++++++++ffim+++++++++++++++++++++++++++++++++++++++++++iiimoorwz++n--++++++++++++++++++++++++++++++++++j..............+++++++++
(PID.TID 0000.0001) //     15 rssmm+++++++++++++++++lffge......+++.++++++++++++++++++++++ss+++++++++l-+k..eq+fcc+++++++++++++++dbbj+++++++++++++++++++++++++++++++++++++++oo++kjiijkntx++ll++++++++++++++++++++++++++++++++++++..............+++++++++
(PID.TID 0000.0001) //     14 mnngghl+++++++++++++++l---a.....a+++a+++++++++++++++++++++++++++++++++++++..-kwjccbbj+++++++++++ufaah++++++++++++++++++++++++++++++++++++++++kklgedddegins+..++++++++++++++++++++++++++++++++++++a...ij........+++++++++
(PID.TID 0000.0001) //     13 lhheei+++++++++++++++++.........e+++e++++++++++++++++++++++++++++++++++++k..-guyvslll++++++++++uqe--jj++++++++++++++++++++++++++++++++++++++++++a......-.....+++++++++++++++++++++++++++++++++++++..cn+.......++++++++++
(PID.TID 0000.0001) //     12 hedccn++++++++++++++++g........-g+++g++++++++++++++++++++++++++++++++xx+++bbbgsvwuqpp++++++rr++gb-..+kk+++++++++++++++++++++++++++++++++++++++++............+++++++++++++++++++++++++++++++++++++++++++......a++++++++++
(PID.TID 0000.0001) //     11 bbbcd+++++++++++++++++c........al++ll++ll+++++++++++++++++++++++++ssttt++caabfqstuttu++++wsqqna.....++++++++++++++++++++++++++++++++++++++++++++..........b++++++++++++++++++++++++++++++++++++++++++++......+++++++++++
(PID.TID 0000.0001) //     10 aa--e+++++++++++++++++e...-...-k++gd++gdd++++++++++++++++++++++++vkkknpsk--aafqrrrttusqqxtiiijb....j++++++++++++++++++++++++++++++++++++++++++++........-+++++++++++++++++++++++++++++++++++++++++++++++--a+++++++++++++
(PID.TID 0000.0001) //      9 d---l++++++++++++++++++.......c+++aa++aa++++++++++++++++++++++++urlkkkmo+++pprsrrsttmgghtnaabejjh--j++++++++++++++++++++++++++++++++++++++++++++......-l++++++++++++++++++++++++++++++++++++++++++++++++++++++++++++++++
(PID.TID 0000.0001) //      8 c--l+++++++++++++++++++......-o+++ff++ff++++++++++++++++++++++ohhikihhhmkee+yvsssttqjjnsxrdddfiie---ko++++++++++++++++++++++++++++++++++++++++++......f+++++++++++++++++++++++++++++++++++++++++++++++++++++++++++++++++
(PID.TID 0000.0001) //      7 ac+++++++++++++++++++++a......s+++ll++ll++++++++++++++++++++++ngggigffhof..k+rrtsssnmmuwvshgggc--....ek++++++++++++++++++++++++++++++++pifffkk+++ddekk++++++++++++++++++++++++++++++++++++++++++++++++++++++++++++++++++
(PID.TID 0000.0001) //      6 -++++++++++++++++++++++l-....a++++++++++++++++++++++++++++++++nhhhigggjtk..-+--swumhhowwwtiihb...-baafk+++++++++++++++++++++++++++++++skklliffm+++++++++++++++++++++++++++++++++++++++++++++++++++++++++++++++++++++++++
(PID.TID 0000.0001) //      5 l+++++++++++++++++++++++.....+++++++++++++++++++++++++++++++++oiijlmmnqvd...+..lzuliiquvwqkhe-...-bggee++++++++++++++++++++++++++++++nmjjottqpp+++++++++++++++++++++++++++++++++++++++++++++++++++++++++++++++++++++++++
(PID.TID 0000.0001) //      4 ++++++++++++++++++++++++kkkk++++++++++++++++++++++++++++++++++qmmosutttq-b.....m+tooooorl-.......--gcck++kk++kk+++++++++++++++++--++jgglpsuuvuu+++++++++++++++++++++++++++++++++++++++++++++++++++++++++++++++++++++++++
(PID.TID 0000.0001) //      3 +++++++++++++++++++++++++++++++++++++++++++++++++++++++++++++++++++++vrnci.....tvtrqjhhh-.........-jaak+++kk++kk+++++++++++++++-..+xtpprtvtppr++++++++++++++++++++++++++++++++++++++++++++++++++++++++++++++++++++++++++
(PID.TID 0000.0001) //      2 ++++++++++++++++++++++++++++++++++++++++++++++++++++++++++++++++++++++spil....kvtttskgc-...........h--++++kk++kk+++++++++++++++--+++wqppuxqnnp++++++++++++++++++++++++++++++++++++++++++++++++++++++++++++++++++++++++++
(PID.TID 0000.0001) //      1 ++++++++++++++++++++++++++++++++++++++++++++++++++++++++++++++++++++++++pg....kppqspec-............ekk++++kk++kk+++++++++++++++ll+++sommottrrs++++++++++++++++++++++++++++++++++++++++++++++++++++++++++ll++++++++++++++
(PID.TID 0000.0001) //      0 .+++++++++++++++++++++++++++++++++++.+++++++++++++++++++++++++++++++++++.......aaao-...............k+kkl+kkk.kkk++++++++++++++rr++xtpmhhhjqtv+++.+++++++++++++++++++++++++++++++++++.+++++++++++++++++++kk++++++mmpu+++s
(PID.TID 0000.0001) //     -1 ..+++++++++++++++++++++++++++++++++...+++++++++++++++++++++++++++++++++...-.......b...............ar+++++++...+++++++++++++++++++++tnkhffgnt+++...+++++++++++++++++++++++++++++++++...+++++++++++++++++oo++++++kffqrpps.
(PID.TID 0000.0001) // =======================================================
(PID.TID 0000.0001) // END OF FIELD                                          =
(PID.TID 0000.0001) // =======================================================
(PID.TID 0000.0001) 
(PID.TID 0000.0001) // =======================================================
(PID.TID 0000.0001) // Field hFacS at iteration          1
(PID.TID 0000.0001) // CMIN =          2.000000000000000E-01
(PID.TID 0000.0001) // CMAX =          1.000000000000000E+00
(PID.TID 0000.0001) // CINT =          2.962962962962963E-02
(PID.TID 0000.0001) // SYMBOLS (CMIN->CMAX): -abcdefghijklmnopqrstuvwxyz+
(PID.TID 0000.0001) //                  0.0: .
(PID.TID 0000.0001) // RANGE I (Lo:Hi:Step):(  -1: 194:   1)
(PID.TID 0000.0001) // RANGE J (Lo:Hi:Step):(  34:  -1:  -1)
(PID.TID 0000.0001) // RANGE K (Lo:Hi:Step):(   1:   1:   1)
(PID.TID 0000.0001) // =======================================================
(PID.TID 0000.0001) K =   1
(PID.TID 0000.0001) //                I=8       I=18      I=28      I=34      I=44      I=54      I=64      I=70      I=80      I=90      I=96      I=106     I=116     I=126     I=132     I=142     I=152     I=162     I=168     I=178     I=188
(PID.TID 0000.0001) // |--J--|*01234567|901234567|901234567|901234123|567890123|567890123|567890123|563456789|123456789|123456789|123456785|789012345|789012345|789012345|789078901|345678901|345678901|345678901|901234567|901234567|901234567|901234
(PID.TID 0000.0001) //     34 .+++++++++++++++++b...baap+k-........g...k+pquspec-...........ej-+++++k..++++++++++++ihinomid......e+++++++..++++++++++++++++++++++++++++++++++..++++++++++++++++++mgecc--l++++++++..++++++++++++++++++++++++++++++++++.
(PID.TID 0000.0001) //     33 ++++++++++++++++++a...ba-+e...............kaaro-..............elkkl++kkk++++++++++++mghklkiid......d++++++++++++++++++++++++++++++++++++++++++++++++++++++++++++++ysnhdb---+++++++++++++++++++++++++++++++++++++++++++++
(PID.TID 0000.0001) //     32 ++++++++++++++++-.ak+k+c-+e...bilg..lg.......db...............k++kl++kkk+++++++++++vkfilljije......d++++++++++++++++++++++++++++++++++++++++++++++++++++++++++++++ysnheba--c++++++++++++++++++++++++++++++++++++++++++++
(PID.TID 0000.0001) //     31 ++++++++++++++++-.++++++k+kfkd-cip-.ip-......................ar++++++++++++++++++++vhfilljikga.....+++++++++++++++++++++++++++++++++++++++++++++++++++++++++++++wuvrmlhbadca-l++++++++++++++++++++++++++++++++++++++++++
(PID.TID 0000.0001) //     30 ++++++++++++++++c+baf+++++++++-bfmk.fmk......................juw++++++++++++++++++rkddipsnkmhc-...k+++++++++++++++++++++++++++++++++++++++++++++++++++++++++++++qourmjjgdhha-hr+++++++++++++++++++++++++++++++++++++++++
(PID.TID 0000.0001) //     29 +++++++++++++++e..-afjm+uuvtl---bfnkbfnk.....................kki++++++++++++++++++rjddi++tpoifa...++++++++++++++++++++++++++++++++++++++++++++++++++++++++++++++loutnjjgfijgfhrv++++++++++++++++++++++++++++++++++++++++
(PID.TID 0000.0001) //     28 +++++++++++++++...-fhfekstspj--..beo.beol.......-............jhd++++++++++++++++++rjeejt++uoigc...+++++++++++++++++++++++++++++++++++++++++++++++++++++++++++++ldmvwoliinpooqqrv++++++++++++++++++++++++++++++++++++++++
(PID.TID 0000.0001) //     27 ++++++++++++++k..egdbcdgkmikjd-..-bj.-bjt+++...bma..........bfgd++++++++++++++++++++kint++vpige-..++++++++++++++++++++++++++++++++++++++++++++++++++++++++++++m--iwytniiffisxxvwv+++v+++++++++++++++++++++++++++++++++++
(PID.TID 0000.0001) //     26 +++++++++++++qkfimf...b-agcgnill..bj..bjutg++llphhe.........bfgl++++++++++++++++++++++j++qopjig-..++++++++++++++++++++++++++++++++++++++++++++++++++++++++++++l-.euzvnm-....dlpus+++s+++++++++++++++++++++++++++++++++++
(PID.TID 0000.0001) //     25 ++++++++++++xplmnnf...-..acgmil+..-i..-intg++++vhghhhkc-...-ill+++++++++++++++++++++++jh+popkih...++++++++++++++++++++++++++++++++++++++++++++++++++++++++++++l-.euxwt.........isw++sw++++++++++++++++++++++++++++++++++
(PID.TID 0000.0001) //     24 ++++++++++++xplmmlg--a-..abgiic+-..c-..chts+++++ighho++e...g+++++++++++++++++++++++..+jhjjqslih...++++++++++++++++++++++++++++++++++++++++++++++v+++++++++++++..-qxxxc..........afm+afm+++++++++++++++-c++++++++++++++++
(PID.TID 0000.0001) //     23 ++++++++++++ysnmmlhf-bifda-cfi..+..c+..cht++++++lfil+++ob-bc+++++++++++++++++++++++...++jhrwpli...a+++++++++++++++++++++++++++++++++++++++++++++km++++++++++++....nxi....+l.......-d..-d+++++++++++++.....-+++++++++++++
(PID.TID 0000.0001) //     22 ++++++++++++yojkmmjkfhmmha-cfe...+al.+al++++++++ofk+++++nigcl++++++++++++++++++++++....++h++rrna...a++++++++++++++++++++++++++++++++++++++++++++fgi+++++++++++e.........++++++e...-...-.-l++++++++++........-+++++++++++
(PID.TID 0000.0001) //     21 ++++++++++++ylfhlnljecfiha-cfe....af..af+++++++++ll++++++spjl++++++++++++++++++++++.....-.+++++j...a++++++++++++++++++++++++++++++++++++++++++++fghhjr+++++++++l-.....++++++++++++e.++e.-l++++j+++++.........+++++++++++
(PID.TID 0000.0001) //     20 +++++++++++++lfhlnlje--bfdbegd....af..af+++++++++l+++++++q+y+++++++++++++++++++++j++....-.++++++-cej++++++++++++++++++++++++++++++++++++++++++++iihhdfsz++++++l+++-.c+++++++++++++++++++++++++jb.++j.........+++++++++++
(PID.TID 0000.0001) //     19 ++++++++++++++lkoqpqi--bfdcb--...-fm.-fm++++++++++++++++ll++++ll++++++++-++++t+++j++....jj++++++kmp+++++++++++++++++++++++++++++++++++++++++++++llkidfrz+++++ll++++++++++++++++++++++++++++++++b..+j.........+++++++++++
(PID.TID 0000.0001) //     18 +++++++++++++++++++++bbehge-....-kr+-kr+++++++++++++++++llp++lal++++++++.+++ro++++++++..++++++++++o+++++++++++++++++++++++++++++++++++++++++++++jknoihr++++tcl++++++++++++++++++++++++++++++++++j.a...........++++++++++
(PID.TID 0000.0001) //     17 yy+++++++++++++++++++lghkkg.....lx++lx+++++++++++++++++++ll++lal+++++r++.abqro+++++++++++++++++++fim++++++++++++++++++++++++++++++++++++++++++++iimooqvz+++n-+++++++++++++++++++++++++++++++++++j.............++++++++++
(PID.TID 0000.0001) //     16 sstm+++++++++++++++++rhfghe.....r+++r+++++++++++++++++++++ls+pl++++++rl-+a.eq++fc++++++++++++++++dbj++++++++++++++++++++++++++++++++++++++++o+++iiijkntx+++l-+++++++++++++++++++++++++++++++++++j.............++++++++++
(PID.TID 0000.0001) //     15 pnnghl++++++++++++++++l--aa.....+++++++++++++++++++++++++++s++++++++++l-+k.-kxwfccbj++++++++++++udah++++++++++++++++++++++++++++++++++++++++okl+geddegins++.+++++++++++++++++++++++++++++++++++++.............++++++++++
(PID.TID 0000.0001) //     14 mhhehl++++++++++++++++l........a+++++++++++++++++++++++++++++++++++++++++k.-guwjccbj+++++++++++uqe-hj++++++++++++++++++++++++++++++++++++++++kl+a.....--....+++++++++++++++++++++++++++++++++++++a..i+j.......++++++++++
(PID.TID 0000.0001) //     13 hedci+++++++++++++++++g........e+++++++++++++++++++++++++++++++++++++x+++k.-gsvwvsll+++++++r+++gb-.jjk++++++++++++++++++++++++++++++++++++++++++............++++++++++++++++++++++++++++++++++++++.cn++......+++++++++++
(PID.TID 0000.0001) //     12 bbccn+++++++++++++++++c.......-g+++l+++l++++++++++++++++++++++++++sttt+++cabfqstuuqp+++++wsqtna....++k++++++++++++++++++++++++++++++++++++++++++...........++++++++++++++++++++++++++++++++++++++++++++.....a+++++++++++
(PID.TID 0000.0001) //     11 aa-d++++++++++++++++++c.......al++gd++gd+++++++++++++++++++++++++vkknpswk-aafqsrrttuusqxytiijka....+++++++++++++++++++++++++++++++++++++++++++++.........b+++++++++++++++++++++++++++++++++++++++++++++.....++++++++++++
(PID.TID 0000.0001) //     10 a--e++++++++++++++++++e...-..-k+++ad++ad++++++++++++++++++++++++urkkkmoqk-cafqsrrtttmghtxnabejb...j+++++++++++++++++++++++++++++++++++++++++++++.......-++++++++++++++++++++++++++++++++++++++++++++++++-a++++++++++++++
(PID.TID 0000.0001) //      9 c--l+++++++++++++++++++......c++++a+++a+++++++++++++++++++++++ohilkihhmpke+prtsrsutqjghtxnabeikie--ko+++++++++++++++++++++++++++++++++++++++++++.....-l+++++++++++++++++++++++++++++++++++++++++++++++++++++++++++++++++
(PID.TID 0000.0001) //      8 c-l++++++++++++++++++++......o++++f+++f+++++++++++++++++++++++nggiigfhmpf.k+yrssstsnjnswvrddfgc--...ek+++++++++++++++++++++++++++++++++piffkk+++.....f++++++++++++++++++++++++++++++++++++++++++++++++++++++++++++++++++
(PID.TID 0000.0001) //      7 c++++++++++++++++++++++a.....s++++l+++l+++++++++++++++++++++++nggiigfhouf.-++-ststmhmuxwvshghb..-...ek++++++++++++++++++++++++++++++++skiffifm+++dekk+++++++++++++++++++++++++++++++++++++++++++++++++++++++++++++++++++
(PID.TID 0000.0001) //      6 +++++++++++++++++++++++l....a+++++++++++++++++++++++++++++++++nhhiiggjtxd..++.lwwulhouvwwqihe-..-bfafe+++++++++++++++++++++++++++++++nmjlnlifm++++++++++++++++++++++++++++++++++++++++++++++++++++++++++++++++++++++++++
(PID.TID 0000.0001) //      5 ++++++++++++++++++++++++....++++++++++++++++++++++++++++++++++oijlnmnqtqd.....l+ztlioorul-......--jgce+++k+++k++++++++++++++++++-+++jgljottuqp++++++++++++++++++++++++++++++++++++++++++++++++++++++++++++++++++++++++++
(PID.TID 0000.0001) //      4 ++++++++++++++++++++++++kkk+++++++++++++++++++++++++++++++++++qmosuuttrneb....myvtoojhhh-........-jgak+++kk++kk++++++++++++++++-.++xjglpsutpru++++++++++++++++++++++++++++++++++++++++++++++++++++++++++++++++++++++++++
(PID.TID 0000.0001) //      3 +++++++++++++++++++++++++++++++++++++++++++++++++++++++++++++++++++++vrnii....tvttrqjgc-..........hj-k++++k+++k++++++++++++++++-.++xtpptvwqnp+++++++++++++++++++++++++++++++++++++++++++++++++++++++++++++++++++++++++++
(PID.TID 0000.0001) //      2 ++++++++++++++++++++++++++++++++++++++++++++++++++++++++++++++++++++++sppg...k+pquspec-...........ej-+++++k+++k++++++++++++++++-++++somotvqnp+++++++++++++++++++++++++++++++++++++++++++++++++++++++++++l+++++++++++++++
(PID.TID 0000.0001) //      1 ++++++++++++++++++++++++++++++++++++++++++++++++++++++++++++++++++++++++-.....kaaro-..............elkkl++kk++kk+++++++++++++++rl++xtpmhhjqtrs+++++++++++++++++++++++++++++++++++++++++++++++++++++++++++k+++++++mpu++++s
(PID.TID 0000.0001) //      0 .++++++++++++++++++++++++++++++++++..++++++++++++++++++++++++++++++++++..g.......db...............k++kl++kk..+k+++++++++++++++r+++xtnkhfgntv+++..++++++++++++++++++++++++++++++++++..++++++++++++++++++ok++++++kfpurps+.
(PID.TID 0000.0001) //     -1 ..++++++++++++++++++++++++++++++++....++++++++++++++++++++++++++++++++....-......................ar+++++++....+++++++++++++++++++++tkkhfgmt+++....++++++++++++++++++++++++++++++++....+++++++++++++++++o+++++++kfqvpnr..
(PID.TID 0000.0001) // =======================================================
(PID.TID 0000.0001) // END OF FIELD                                          =
(PID.TID 0000.0001) // =======================================================
(PID.TID 0000.0001) 
(PID.TID 0000.0001) 
(PID.TID 0000.0001) // ===================================
(PID.TID 0000.0001) // GAD parameters :
(PID.TID 0000.0001) // ===================================
(PID.TID 0000.0001) tempAdvScheme =   /* Temp. Horiz.Advection scheme selector */
[...]
(PID.TID 0000.0001) %MON thSI_Tic1_max_S              =  -1.7443806527970E+00
(PID.TID 0000.0001) %MON thSI_Tic1_max_N              =  -4.2274677301740E+00
(PID.TID 0000.0001) %MON thSI_Tic2_ave_G              =  -2.5989390122799E+00
(PID.TID 0000.0001) %MON thSI_Tic2_ave_S              =  -1.8554212859069E+00
(PID.TID 0000.0001) %MON thSI_Tic2_ave_N              =  -2.6432834742348E+00
(PID.TID 0000.0001) %MON thSI_Tic2_min_S              =  -1.8591359139948E+00
(PID.TID 0000.0001) %MON thSI_Tic2_min_N              =  -2.6718546246085E+00
(PID.TID 0000.0001) %MON thSI_Tic2_max_S              =  -1.8514636888386E+00
(PID.TID 0000.0001) %MON thSI_Tic2_max_N              =  -2.5204671260401E+00
(PID.TID 0000.0001) // =======================================================
(PID.TID 0000.0001) // End MONITOR Therm.SeaIce statistics
(PID.TID 0000.0001) // =======================================================
 Computing Diagnostic # 238  ETAN         Counter:   10      Parms: SM      M1      
 Computing Diagnostic # 239  ETANSQ       Counter:   10      Parms: SM      M1      
 Computing Diagnostic # 240  DETADT2      Counter:   10      Parms: SM      M1      
 Computing Diagnostic # 243  UVEL         Counter:   10      Parms: UU   244MR      
           Vector  Mate for  UVEL         Diagnostic # 244  VVEL     exists 
 Computing Diagnostic # 244  VVEL         Counter:   10      Parms: VV   243MR      
           Vector  Mate for  VVEL         Diagnostic # 243  UVEL     exists 
 Computing Diagnostic # 245  WVEL         Counter:   10      Parms: WM      LR      
 Computing Diagnostic # 241  THETA        Counter:   10      Parms: SM      MR      
 Computing Diagnostic # 242  SALT         Counter:   10      Parms: SM      MR      
 Computing Diagnostic # 248  UVELSQ       Counter:   10      Parms: UU   249MR      
           Vector  Mate for  UVELSQ       Diagnostic # 249  VVELSQ   exists 
 Computing Diagnostic # 249  VVELSQ       Counter:   10      Parms: VV   248MR      
           Vector  Mate for  VVELSQ       Diagnostic # 248  UVELSQ   exists 
 Computing Diagnostic # 246  THETASQ      Counter:   10      Parms: SM      MR      
 Computing Diagnostic # 252  UV_VEL_Z     Counter:   10      Parms: UZ   252MR      
           Vector  Mate for  UV_VEL_Z     Diagnostic # 252  UV_VEL_Z exists 
 Computing Diagnostic # 253  UVELMASS     Counter:   10      Parms: UU   254MR      
           Vector  Mate for  UVELMASS     Diagnostic # 254  VVELMASS exists 
 Computing Diagnostic # 254  VVELMASS     Counter:   10      Parms: VV   253MR      
           Vector  Mate for  VVELMASS     Diagnostic # 253  UVELMASS exists 
 Computing Diagnostic # 256  UTHMASS      Counter:   10      Parms: UU   257MR      
           Vector  Mate for  UTHMASS      Diagnostic # 257  VTHMASS  exists 
 Computing Diagnostic # 257  VTHMASS      Counter:   10      Parms: VV   256MR      
           Vector  Mate for  VTHMASS      Diagnostic # 256  UTHMASS  exists 
 Computing Diagnostic # 264  WVELTH       Counter:   10      Parms: WM      MR      
 Computing Diagnostic # 259  USLTMASS     Counter:   10      Parms: UU   260MR      
           Vector  Mate for  USLTMASS     Diagnostic # 260  VSLTMASS exists 
 Computing Diagnostic # 260  VSLTMASS     Counter:   10      Parms: VV   259MR      
           Vector  Mate for  VSLTMASS     Diagnostic # 259  USLTMASS exists 
 Computing Diagnostic # 267  WVELSLT      Counter:   10      Parms: WM      MR      
 Computing Diagnostic #   1  UFLUX        Counter:   10      Parms: UM   002L1      
           Vector  Mate for  UFLUX        Diagnostic #   2  VFLUX    exists 
 Computing Diagnostic #   2  VFLUX        Counter:   10      Parms: VM   001L1      
           Vector  Mate for  VFLUX        Diagnostic #   1  UFLUX    exists 
 Computing Diagnostic #  72  OSR          Counter:   10      Parms: SM P    U1      
 Computing Diagnostic #  37  OLR          Counter:   10      Parms: SM      U1      
 Computing Diagnostic #   7  RADSWG       Counter:   10      Parms: SM P    L1      
 Computing Diagnostic #   6  RADLWG       Counter:   10      Parms: SM      L1      
 Computing Diagnostic #   3  HFLUX        Counter:   10      Parms: SM      L1      
 Computing Diagnostic #  52  EVAP         Counter:   10      Parms: SM      L1      
 Computing Diagnostic #  22  PRECON       Counter:   10      Parms: SM P    L1      
 Computing Diagnostic # 299  PRECLS       Counter:   10      Parms: SM      M1      
 Computing Diagnostic # 106  CLDFRC       Counter:   10      Parms: SM P    M1      
 Computing Diagnostic # 146  CLDPRS       Counter:   10      Parms: SM PC147M1      
       use Counter Mate for  CLDPRS       Diagnostic # 147  CTPCNT  
 Computing Diagnostic #  74  CLDMAS       Counter:   10      Parms: SM P    LL      
 Computing Diagnostic #  11  KM           Counter:   10      Parms: SM      LL      
 Computing Diagnostic #  28  WINDS        Counter:   10      Parms: SM      L1      
 Computing Diagnostic #  31  TS           Counter:   10      Parms: SM      L1      
 Computing Diagnostic #  34  QS           Counter:   10      Parms: SM P    L1      
 Computing Diagnostic # 300  ENPREC       Counter:   10      Parms: SM      M1      
 Computing Diagnostic # 206  ALBVISDF     Counter:   10      Parms: SM      L1      
 Computing Diagnostic #  84  SDIAG1       Counter:   10      Parms: SM      L1      
 Computing Diagnostic # 298  RELHUM       Counter:   10      Parms: SM      MR      
 Computing Diagnostic #  90  DIABT        Counter:   10      Parms: SM      ML      
 Computing Diagnostic #  91  DIABQ        Counter:   10      Parms: SM      ML      
 Computing Diagnostic #  20  RADSW        Counter:   10      Parms: SM P    ML      
 Computing Diagnostic #  19  RADLW        Counter:   10      Parms: SM      ML      
 Computing Diagnostic # 296  DTCONV       Counter:   10      Parms: SM      MR      
 Computing Diagnostic #  65  DTLS         Counter:   10      Parms: SM      ML      
 Computing Diagnostic # 297  DQCONV       Counter:   10      Parms: SM      MR      
 Computing Diagnostic #  66  DQLS         Counter:   10      Parms: SM      ML      
(PID.TID 0000.0001) %CHECKPOINT        10 ckptA
(PID.TID 0000.0001)   Seconds in section "ALL                    [THE_MODEL_MAIN]":
(PID.TID 0000.0001)           User time:  8.74
(PID.TID 0000.0001)         System time:  0.50999999
(PID.TID 0000.0001)     Wall clock time:  9.27554798
(PID.TID 0000.0001)          No. starts: 1
(PID.TID 0000.0001)           No. stops: 1
(PID.TID 0000.0001)   Seconds in section "INITIALISE_FIXED       [THE_MODEL_MAIN]":
(PID.TID 0000.0001)           User time:  0.509999981
(PID.TID 0000.0001)         System time:  0.0799999982
(PID.TID 0000.0001)     Wall clock time:  0.591833115
(PID.TID 0000.0001)          No. starts: 1
(PID.TID 0000.0001)           No. stops: 1
(PID.TID 0000.0001)   Seconds in section "THE_MAIN_LOOP          [THE_MODEL_MAIN]":
(PID.TID 0000.0001)           User time:  8.19000006
(PID.TID 0000.0001)         System time:  0.350000009
(PID.TID 0000.0001)     Wall clock time:  8.54142404
(PID.TID 0000.0001)          No. starts: 1
(PID.TID 0000.0001)           No. stops: 1
(PID.TID 0000.0001)   Seconds in section "INITIALISE_VARIA    [THE_MAIN_LOOP]":
(PID.TID 0000.0001)           User time:  0.170000017
(PID.TID 0000.0001)         System time:  0.0300000012
(PID.TID 0000.0001)     Wall clock time:  0.203674078
(PID.TID 0000.0001)          No. starts: 1
(PID.TID 0000.0001)           No. stops: 1
(PID.TID 0000.0001)   Seconds in section "MONITOR             [THE_MAIN_LOOP]":
(PID.TID 0000.0001)           User time:  0.110000014
(PID.TID 0000.0001)         System time:  0.
(PID.TID 0000.0001)     Wall clock time:  0.109327793
(PID.TID 0000.0001)          No. starts: 1
(PID.TID 0000.0001)           No. stops: 1
(PID.TID 0000.0001)   Seconds in section "DO_THE_MODEL_IO     [THE_MAIN_LOOP]":
(PID.TID 0000.0001)           User time:  0.0699999928
(PID.TID 0000.0001)         System time:  0.0600000024
(PID.TID 0000.0001)     Wall clock time:  0.125228167
(PID.TID 0000.0001)          No. starts: 1
(PID.TID 0000.0001)           No. stops: 1
(PID.TID 0000.0001)   Seconds in section "MAIN LOOP           [THE_MAIN_LOOP]":
(PID.TID 0000.0001)           User time:  7.84000003
(PID.TID 0000.0001)         System time:  0.260000005
(PID.TID 0000.0001)     Wall clock time:  8.10304093
(PID.TID 0000.0001)          No. starts: 1
(PID.TID 0000.0001)           No. stops: 1
(PID.TID 0000.0001)   Seconds in section "FORWARD_STEP        [THE_MAIN_LOOP]":
(PID.TID 0000.0001)           User time:  7.84000003
(PID.TID 0000.0001)         System time:  0.260000005
(PID.TID 0000.0001)     Wall clock time:  8.10272002
(PID.TID 0000.0001)          No. starts: 10
(PID.TID 0000.0001)           No. stops: 10
(PID.TID 0000.0001)   Seconds in section "DO_STATEVARS_DIAGS  [FORWARD_STEP]":
(PID.TID 0000.0001)           User time:  0.2900002
(PID.TID 0000.0001)         System time:  0.
(PID.TID 0000.0001)     Wall clock time:  0.284781933
(PID.TID 0000.0001)          No. starts: 20
(PID.TID 0000.0001)           No. stops: 20
(PID.TID 0000.0001)   Seconds in section "EXTERNAL_FIELDS_LOAD[FORWARD_STEP]":
(PID.TID 0000.0001)           User time:  0.0199999809
(PID.TID 0000.0001)         System time:  0.
(PID.TID 0000.0001)     Wall clock time:  0.022642374
(PID.TID 0000.0001)          No. starts: 10
(PID.TID 0000.0001)           No. stops: 10
(PID.TID 0000.0001)   Seconds in section "DO_ATMOSPHERIC_PHYS [FORWARD_STEP]":
(PID.TID 0000.0001)           User time:  1.53000045
(PID.TID 0000.0001)         System time:  0.049999997
(PID.TID 0000.0001)     Wall clock time:  1.5528729
(PID.TID 0000.0001)          No. starts: 10
(PID.TID 0000.0001)           No. stops: 10
(PID.TID 0000.0001)   Seconds in section "AIM_DO_PHYSICS [DO_ATMOSPHERIC_PHYS]":
(PID.TID 0000.0001)           User time:  1.53000045
(PID.TID 0000.0001)         System time:  0.049999997
(PID.TID 0000.0001)     Wall clock time:  1.5445106
(PID.TID 0000.0001)          No. starts: 60
(PID.TID 0000.0001)           No. stops: 60
(PID.TID 0000.0001)   Seconds in section "DO_OCEANIC_PHYS     [FORWARD_STEP]":
(PID.TID 0000.0001)           User time:  0.
(PID.TID 0000.0001)         System time:  0.
(PID.TID 0000.0001)     Wall clock time:  0.016002655
(PID.TID 0000.0001)          No. starts: 10
(PID.TID 0000.0001)           No. stops: 10
(PID.TID 0000.0001)   Seconds in section "DYNAMICS            [FORWARD_STEP]":
(PID.TID 0000.0001)           User time:  1.21999907
(PID.TID 0000.0001)         System time:  0.
(PID.TID 0000.0001)     Wall clock time:  1.2228179
(PID.TID 0000.0001)          No. starts: 10
(PID.TID 0000.0001)           No. stops: 10
(PID.TID 0000.0001)   Seconds in section "UPDATE_R_STAR      [FORWARD_STEP]":
(PID.TID 0000.0001)           User time:  0.0999999046
(PID.TID 0000.0001)         System time:  0.
(PID.TID 0000.0001)     Wall clock time:  0.0986776352
(PID.TID 0000.0001)          No. starts: 10
(PID.TID 0000.0001)           No. stops: 10
(PID.TID 0000.0001)   Seconds in section "UPDATE_CG2D        [FORWARD_STEP]":
(PID.TID 0000.0001)           User time:  0.0600004196
(PID.TID 0000.0001)         System time:  0.
(PID.TID 0000.0001)     Wall clock time:  0.0530433655
(PID.TID 0000.0001)          No. starts: 10
(PID.TID 0000.0001)           No. stops: 10
(PID.TID 0000.0001)   Seconds in section "SOLVE_FOR_PRESSURE  [FORWARD_STEP]":
(PID.TID 0000.0001)           User time:  0.570000052
(PID.TID 0000.0001)         System time:  0.
(PID.TID 0000.0001)     Wall clock time:  0.578305483
(PID.TID 0000.0001)          No. starts: 10
(PID.TID 0000.0001)           No. stops: 10
(PID.TID 0000.0001)   Seconds in section "UV_CORRECTION_STEP  [FORWARD_STEP]":
(PID.TID 0000.0001)           User time:  0.710000038
(PID.TID 0000.0001)         System time:  0.
(PID.TID 0000.0001)     Wall clock time:  0.707033634
(PID.TID 0000.0001)          No. starts: 10
(PID.TID 0000.0001)           No. stops: 10
(PID.TID 0000.0001)   Seconds in section "UPDATE_ETAH        [FORWARD_STEP]":
(PID.TID 0000.0001)           User time:  0.
(PID.TID 0000.0001)         System time:  0.
(PID.TID 0000.0001)     Wall clock time:  0.00346422195
(PID.TID 0000.0001)          No. starts: 10
(PID.TID 0000.0001)           No. stops: 10
(PID.TID 0000.0001)   Seconds in section "CALC_R_STAR       [FORWARD_STEP]":
(PID.TID 0000.0001)           User time:  0.0399996042
(PID.TID 0000.0001)         System time:  0.
(PID.TID 0000.0001)     Wall clock time:  0.0467221737
(PID.TID 0000.0001)          No. starts: 10
(PID.TID 0000.0001)           No. stops: 10
(PID.TID 0000.0001)   Seconds in section "BLOCKING_EXCHANGES  [FORWARD_STEP]":
(PID.TID 0000.0001)           User time:  0.0699999332
(PID.TID 0000.0001)         System time:  0.
(PID.TID 0000.0001)     Wall clock time:  0.0770354271
(PID.TID 0000.0001)          No. starts: 20
(PID.TID 0000.0001)           No. stops: 20
(PID.TID 0000.0001)   Seconds in section "THERMODYNAMICS      [FORWARD_STEP]":
(PID.TID 0000.0001)           User time:  0.680000782
(PID.TID 0000.0001)         System time:  0.
(PID.TID 0000.0001)     Wall clock time:  0.687349796
(PID.TID 0000.0001)          No. starts: 10
(PID.TID 0000.0001)           No. stops: 10
(PID.TID 0000.0001)   Seconds in section "TS_CORRECTION_STEP  [FORWARD_STEP]":
(PID.TID 0000.0001)           User time:  0.699998975
(PID.TID 0000.0001)         System time:  0.
(PID.TID 0000.0001)     Wall clock time:  0.703933239
(PID.TID 0000.0001)          No. starts: 10
(PID.TID 0000.0001)           No. stops: 10
(PID.TID 0000.0001)   Seconds in section "DO_STATEVARS_TAVE   [FORWARD_STEP]":
(PID.TID 0000.0001)           User time:  0.370001078
(PID.TID 0000.0001)         System time:  0.
(PID.TID 0000.0001)     Wall clock time:  0.359160185
(PID.TID 0000.0001)          No. starts: 10
(PID.TID 0000.0001)           No. stops: 10
(PID.TID 0000.0001)   Seconds in section "MONITOR             [FORWARD_STEP]":
(PID.TID 0000.0001)           User time:  1.04999864
(PID.TID 0000.0001)         System time:  0.
(PID.TID 0000.0001)     Wall clock time:  1.06878495
(PID.TID 0000.0001)          No. starts: 10
(PID.TID 0000.0001)           No. stops: 10
(PID.TID 0000.0001)   Seconds in section "DO_THE_MODEL_IO     [FORWARD_STEP]":
(PID.TID 0000.0001)           User time:  0.400000334
(PID.TID 0000.0001)         System time:  0.210000008
(PID.TID 0000.0001)     Wall clock time:  0.613407135
(PID.TID 0000.0001)          No. starts: 10
(PID.TID 0000.0001)           No. stops: 10
(PID.TID 0000.0001)   Seconds in section "WRITE_CHECKPOINT    [FORWARD_STEP]":
(PID.TID 0000.0001)           User time:  0.
(PID.TID 0000.0001)         System time:  0.
(PID.TID 0000.0001)     Wall clock time:  0.000312805176
(PID.TID 0000.0001)          No. starts: 10
(PID.TID 0000.0001)           No. stops: 10
(PID.TID 0000.0001)   Seconds in section "WRITE_CHECKPOINT       [THE_MODEL_MAIN]":
(PID.TID 0000.0001)           User time:  0.0399999619
(PID.TID 0000.0001)         System time:  0.0799999833
(PID.TID 0000.0001)     Wall clock time:  0.142165899
(PID.TID 0000.0001)          No. starts: 1
(PID.TID 0000.0001)           No. stops: 1
(PID.TID 0000.0001) // ======================================================
(PID.TID 0000.0001) // Tile <-> Tile communication statistics
(PID.TID 0000.0001) // ======================================================
(PID.TID 0000.0001) // o Tile number: 000001
(PID.TID 0000.0001) //         No. X exchanges =              0
(PID.TID 0000.0001) //            Max. X spins =              0
(PID.TID 0000.0001) //            Min. X spins =     1000000000
(PID.TID 0000.0001) //          Total. X spins =              0
(PID.TID 0000.0001) //            Avg. X spins =       0.00E+00
(PID.TID 0000.0001) //         No. Y exchanges =              0
(PID.TID 0000.0001) //            Max. Y spins =              0
(PID.TID 0000.0001) //            Min. Y spins =     1000000000
(PID.TID 0000.0001) //          Total. Y spins =              0
(PID.TID 0000.0001) //            Avg. Y spins =       0.00E+00
(PID.TID 0000.0001) // o Tile number: 000002
(PID.TID 0000.0001) //         No. X exchanges =              0
(PID.TID 0000.0001) //            Max. X spins =              0
(PID.TID 0000.0001) //            Min. X spins =     1000000000
(PID.TID 0000.0001) //          Total. X spins =              0
(PID.TID 0000.0001) //            Avg. X spins =       0.00E+00
(PID.TID 0000.0001) //         No. Y exchanges =              0
(PID.TID 0000.0001) //            Max. Y spins =              0
(PID.TID 0000.0001) //            Min. Y spins =     1000000000
(PID.TID 0000.0001) //          Total. Y spins =              0
(PID.TID 0000.0001) //            Avg. Y spins =       0.00E+00
(PID.TID 0000.0001) // o Tile number: 000003
(PID.TID 0000.0001) //         No. X exchanges =              0
(PID.TID 0000.0001) //            Max. X spins =              0
(PID.TID 0000.0001) //            Min. X spins =     1000000000
(PID.TID 0000.0001) //          Total. X spins =              0
(PID.TID 0000.0001) //            Avg. X spins =       0.00E+00
(PID.TID 0000.0001) //         No. Y exchanges =              0
(PID.TID 0000.0001) //            Max. Y spins =              0
(PID.TID 0000.0001) //            Min. Y spins =     1000000000
(PID.TID 0000.0001) //          Total. Y spins =              0
(PID.TID 0000.0001) //            Avg. Y spins =       0.00E+00
(PID.TID 0000.0001) // o Tile number: 000004
(PID.TID 0000.0001) //         No. X exchanges =              0
(PID.TID 0000.0001) //            Max. X spins =              0
(PID.TID 0000.0001) //            Min. X spins =     1000000000
(PID.TID 0000.0001) //          Total. X spins =              0
(PID.TID 0000.0001) //            Avg. X spins =       0.00E+00
(PID.TID 0000.0001) //         No. Y exchanges =              0
(PID.TID 0000.0001) //            Max. Y spins =              0
(PID.TID 0000.0001) //            Min. Y spins =     1000000000
(PID.TID 0000.0001) //          Total. Y spins =              0
(PID.TID 0000.0001) //            Avg. Y spins =       0.00E+00
(PID.TID 0000.0001) // o Tile number: 000005
(PID.TID 0000.0001) //         No. X exchanges =              0
(PID.TID 0000.0001) //            Max. X spins =              0
(PID.TID 0000.0001) //            Min. X spins =     1000000000
(PID.TID 0000.0001) //          Total. X spins =              0
(PID.TID 0000.0001) //            Avg. X spins =       0.00E+00
(PID.TID 0000.0001) //         No. Y exchanges =              0
(PID.TID 0000.0001) //            Max. Y spins =              0
(PID.TID 0000.0001) //            Min. Y spins =     1000000000
(PID.TID 0000.0001) //          Total. Y spins =              0
(PID.TID 0000.0001) //            Avg. Y spins =       0.00E+00
(PID.TID 0000.0001) // o Tile number: 000006
(PID.TID 0000.0001) //         No. X exchanges =              0
(PID.TID 0000.0001) //            Max. X spins =              0
(PID.TID 0000.0001) //            Min. X spins =     1000000000
(PID.TID 0000.0001) //          Total. X spins =              0
(PID.TID 0000.0001) //            Avg. X spins =       0.00E+00
(PID.TID 0000.0001) //         No. Y exchanges =              0
(PID.TID 0000.0001) //            Max. Y spins =              0
(PID.TID 0000.0001) //            Min. Y spins =     1000000000
(PID.TID 0000.0001) //          Total. Y spins =              0
(PID.TID 0000.0001) //            Avg. Y spins =       0.00E+00
(PID.TID 0000.0001) // o Thread number: 000001
(PID.TID 0000.0001) //            No. barriers =          15226
(PID.TID 0000.0001) //      Max. barrier spins =              1
(PID.TID 0000.0001) //      Min. barrier spins =              1
(PID.TID 0000.0001) //     Total barrier spins =          15226
(PID.TID 0000.0001) //      Avg. barrier spins =       1.00E+00
