(PID.TID 0000.0001) 
(PID.TID 0000.0001) // ======================================================
(PID.TID 0000.0001) //                      MITgcm UV
(PID.TID 0000.0001) //                      =========
(PID.TID 0000.0001) // ======================================================
(PID.TID 0000.0001) // execution environment starting up...
(PID.TID 0000.0001) 
(PID.TID 0000.0001) // MITgcmUV version:  checkpoint64c
(PID.TID 0000.0001) // Build user:        jmc
(PID.TID 0000.0001) // Build host:        baudelaire
(PID.TID 0000.0001) // Build date:        Sat Feb  2 22:34:53 EST 2013
(PID.TID 0000.0001) 
(PID.TID 0000.0001) // =======================================================
(PID.TID 0000.0001) // Execution Environment parameter file "eedata"
(PID.TID 0000.0001) // =======================================================
(PID.TID 0000.0001) ># Example "eedata" file
(PID.TID 0000.0001) ># Lines beginning "#" are comments
(PID.TID 0000.0001) ># nTx - No. threads per process in X
(PID.TID 0000.0001) ># nTy - No. threads per process in Y
(PID.TID 0000.0001) > &EEPARMS
(PID.TID 0000.0001) > useCubedSphereExchange=.TRUE.,
(PID.TID 0000.0001) ># Activate one line below to support 2, 3 or 6 way multi-threading
(PID.TID 0000.0001) > nTx=1,
(PID.TID 0000.0001) >#nTx=2,
(PID.TID 0000.0001) >#nTx=3,
(PID.TID 0000.0001) >#nTx=6,
(PID.TID 0000.0001) > /
(PID.TID 0000.0001) ># Note: Some systems use & as the
(PID.TID 0000.0001) ># namelist terminator. Other systems
(PID.TID 0000.0001) ># use a / character (as shown here).
(PID.TID 0000.0001) 
(PID.TID 0000.0001) // =======================================================
(PID.TID 0000.0001) // Computational Grid Specification ( see files "SIZE.h" )
(PID.TID 0000.0001) //                                  ( and "eedata"       )
(PID.TID 0000.0001) // =======================================================
(PID.TID 0000.0001)      nPx =    1 ; /* No. processes in X */
(PID.TID 0000.0001)      nPy =    1 ; /* No. processes in Y */
(PID.TID 0000.0001)      nSx =    6 ; /* No. tiles in X per process */
(PID.TID 0000.0001)      nSy =    1 ; /* No. tiles in Y per process */
(PID.TID 0000.0001)      sNx =   32 ; /* Tile size in X */
(PID.TID 0000.0001)      sNy =   32 ; /* Tile size in Y */
(PID.TID 0000.0001)      OLx =    2 ; /* Tile overlap distance in X */
(PID.TID 0000.0001)      OLy =    2 ; /* Tile overlap distance in Y */
(PID.TID 0000.0001)      nTx =    1 ; /* No. threads in X per process */
(PID.TID 0000.0001)      nTy =    1 ; /* No. threads in Y per process */
(PID.TID 0000.0001)       Nr =    5 ; /* No. levels in the vertical   */
(PID.TID 0000.0001)       Nx =  192 ; /* Total domain size in X ( = nPx*nSx*sNx ) */
(PID.TID 0000.0001)       Ny =   32 ; /* Total domain size in Y ( = nPy*nSy*sNy ) */
(PID.TID 0000.0001)   nTiles =    6 ; /* Total no. tiles per process ( = nSx*nSy ) */
(PID.TID 0000.0001)   nProcs =    1 ; /* Total no. processes ( = nPx*nPy ) */
(PID.TID 0000.0001) nThreads =    1 ; /* Total no. threads per process ( = nTx*nTy ) */
(PID.TID 0000.0001) usingMPI =    F ; /* Flag used to control whether MPI is in use */
(PID.TID 0000.0001)                   /*  note: To execute a program with MPI calls */
(PID.TID 0000.0001)                   /*  it must be launched appropriately e.g     */
(PID.TID 0000.0001)                   /*  "mpirun -np 64 ......"                    */
(PID.TID 0000.0001) useCoupler=    F ;/* Flag used to control communications with   */
(PID.TID 0000.0001)                   /*  other model components, through a coupler */
(PID.TID 0000.0001) debugMode =    F ; /* print debug msg. (sequence of S/R calls)  */
(PID.TID 0000.0001) printMapIncludesZeros=    F ; /* print zeros in Std.Output maps */
(PID.TID 0000.0001) maxLengthPrt1D=   65 /* maxLength of 1D array printed to StdOut */
(PID.TID 0000.0001) 
(PID.TID 0000.0001) // ======================================================
(PID.TID 0000.0001) // Mapping of tiles to threads
(PID.TID 0000.0001) // ======================================================
(PID.TID 0000.0001) // -o- Thread   1, tiles (   1:   6,   1:   1)
(PID.TID 0000.0001) 
(PID.TID 0000.0001) W2_READPARMS: file data.exch2 not found
(PID.TID 0000.0001) => use W2_EXCH2 default: regular 6-facets Cube
(PID.TID 0000.0001) W2_useE2ioLayOut=    T ;/* T: use Exch2 glob IO map; F: use model default */
(PID.TID 0000.0001) W2_mapIO        =  -1 ; /* select option for Exch2 global-IO map */
(PID.TID 0000.0001) W2_printMsg     =  -1 ; /* select option for printing information */
(PID.TID 0000.0001) ===== Start setting W2 TOPOLOGY:
(PID.TID 0000.0001)  write to log-file: w2_tile_topology.0000.log
(PID.TID 0000.0001) =====       setting W2 TOPOLOGY: Done
(PID.TID 0000.0001) 
(PID.TID 0000.0001)  INI_PARMS: opening model parameter file "data"
(PID.TID 0000.0001)  OPEN_COPY_DATA_FILE: opening file data
(PID.TID 0000.0001) // =======================================================
(PID.TID 0000.0001) // Parameter file "data"
(PID.TID 0000.0001) // =======================================================
(PID.TID 0000.0001) ># ====================
(PID.TID 0000.0001) ># | Model parameters |
(PID.TID 0000.0001) ># ====================
(PID.TID 0000.0001) >#
(PID.TID 0000.0001) ># Continuous equation parameters
(PID.TID 0000.0001) > &PARM01
(PID.TID 0000.0001) > tRef=289.6, 298.1, 314.5, 335.8, 437.4,
(PID.TID 0000.0001) > sRef=5*0.,
(PID.TID 0000.0001) > no_slip_sides=.FALSE.,
(PID.TID 0000.0001) > no_slip_bottom=.FALSE.,
(PID.TID 0000.0001) > buoyancyRelation='ATMOSPHERIC',
(PID.TID 0000.0001) > eosType='IDEALG',
(PID.TID 0000.0001) > atm_Rq=0.6078E-3,
(PID.TID 0000.0001) > Integr_GeoPot=2,
(PID.TID 0000.0001) > selectFindRoSurf=1,
(PID.TID 0000.0001) > gravity=9.81,
(PID.TID 0000.0001) > rhoConstFresh=1000.,
(PID.TID 0000.0001) > implicitFreeSurface=.TRUE.,
(PID.TID 0000.0001) > exactConserv=.TRUE.,
(PID.TID 0000.0001) > select_rStar=2,
(PID.TID 0000.0001) > nonlinFreeSurf=4,
(PID.TID 0000.0001) > hFacInf=0.2,
(PID.TID 0000.0001) > hFacSup=2.0,
(PID.TID 0000.0001) > uniformLin_PhiSurf=.FALSE.,
(PID.TID 0000.0001) > hFacMin=0.2,
(PID.TID 0000.0001) > saltAdvScheme=3,
(PID.TID 0000.0001) > vectorInvariantMomentum=.TRUE.,
(PID.TID 0000.0001) > useJamartWetPoints=.TRUE.,
(PID.TID 0000.0001) > staggerTimeStep=.TRUE.,
(PID.TID 0000.0001) > readBinaryPrec=64,
(PID.TID 0000.0001) >#writeBinaryPrec=64,
(PID.TID 0000.0001) > useSingleCpuIO=.TRUE.
(PID.TID 0000.0001) > /
(PID.TID 0000.0001) >
(PID.TID 0000.0001) ># Elliptic solver parameters
(PID.TID 0000.0001) > &PARM02
(PID.TID 0000.0001) > cg2dMaxIters=200,
(PID.TID 0000.0001) >#cg2dTargetResidual=1.E-12,
(PID.TID 0000.0001) > cg2dTargetResWunit=1.E-17,
(PID.TID 0000.0001) > /
(PID.TID 0000.0001) >
(PID.TID 0000.0001) ># Time stepping parameters
(PID.TID 0000.0001) > &PARM03
(PID.TID 0000.0001) > nIter0=0,
(PID.TID 0000.0001) > nTimeSteps=10,
(PID.TID 0000.0001) ># 10yr:
(PID.TID 0000.0001) >#endTime=311040000.,
(PID.TID 0000.0001) > deltaT=450.0,
(PID.TID 0000.0001) > abEps=0.1,
(PID.TID 0000.0001) > forcing_In_AB=.FALSE.,
(PID.TID 0000.0001) > cAdjFreq=0.,
(PID.TID 0000.0001) > pChkptFreq=2592000.,
(PID.TID 0000.0001) > taveFreq=2592000.,
(PID.TID 0000.0001) > dumpFreq=2592000.,
(PID.TID 0000.0001) > monitorFreq=86400.,
(PID.TID 0000.0001) > monitorFreq=1.,
(PID.TID 0000.0001) > /
(PID.TID 0000.0001) >
(PID.TID 0000.0001) ># Gridding parameters
(PID.TID 0000.0001) > &PARM04
(PID.TID 0000.0001) > usingCurvilinearGrid=.TRUE.,
(PID.TID 0000.0001) > radius_fromHorizGrid=6370.E3,
(PID.TID 0000.0001) > delR=100.E2, 250.E2, 300.E2, 200.E2, 150.E2,
(PID.TID 0000.0001) > Ro_SeaLevel=1.E5,
(PID.TID 0000.0001) > /
(PID.TID 0000.0001) >
(PID.TID 0000.0001) ># Input datasets
(PID.TID 0000.0001) > &PARM05
(PID.TID 0000.0001) > topoFile='topo.cpl_FM.bin',
(PID.TID 0000.0001) > /
(PID.TID 0000.0001) 
(PID.TID 0000.0001)  INI_PARMS ; starts to read PARM01
(PID.TID 0000.0001)  INI_PARMS ; read PARM01 : OK
(PID.TID 0000.0001)  INI_PARMS ; starts to read PARM02
(PID.TID 0000.0001)  INI_PARMS ; read PARM02 : OK
(PID.TID 0000.0001)  INI_PARMS ; starts to read PARM03
(PID.TID 0000.0001)  INI_PARMS ; read PARM03 : OK
(PID.TID 0000.0001)  INI_PARMS ; starts to read PARM04
(PID.TID 0000.0001)  INI_PARMS ; read PARM04 : OK
(PID.TID 0000.0001)  INI_PARMS ; starts to read PARM05
(PID.TID 0000.0001)  INI_PARMS ; read PARM05 : OK
(PID.TID 0000.0001)  INI_PARMS: finished reading file "data"
(PID.TID 0000.0001)  PACKAGES_BOOT: opening data.pkg
(PID.TID 0000.0001)  OPEN_COPY_DATA_FILE: opening file data.pkg
(PID.TID 0000.0001) // =======================================================
(PID.TID 0000.0001) // Parameter file "data.pkg"
(PID.TID 0000.0001) // =======================================================
(PID.TID 0000.0001) ># Packages
(PID.TID 0000.0001) >#     useAIM  :: use Atmospheric Intermediate complexity Model
(PID.TID 0000.0001) >#     useLand :: use (simple) Land package to compute surf. BC over land
(PID.TID 0000.0001) >#   useThSIce :: use Therm. SeaIce package (+slab ocean)
(PID.TID 0000.0001) > &PACKAGES
(PID.TID 0000.0001) > useAIM=.TRUE.,
(PID.TID 0000.0001) > useLand=.TRUE.,
(PID.TID 0000.0001) > useThSIce=.TRUE.,
(PID.TID 0000.0001) > useSHAP_FILT=.TRUE.,
(PID.TID 0000.0001) > useDiagnostics=.TRUE.,
(PID.TID 0000.0001) ># useMNC=.TRUE.,
(PID.TID 0000.0001) > /
(PID.TID 0000.0001) 
(PID.TID 0000.0001)  PACKAGES_BOOT: finished reading data.pkg
(PID.TID 0000.0001)  SHAP_FILT_READPARMS: opening data.shap
(PID.TID 0000.0001)  OPEN_COPY_DATA_FILE: opening file data.shap
(PID.TID 0000.0001) // =======================================================
(PID.TID 0000.0001) // Parameter file "data.shap"
(PID.TID 0000.0001) // =======================================================
(PID.TID 0000.0001) ># Shapiro Filter parameters
(PID.TID 0000.0001) > &SHAP_PARM01
(PID.TID 0000.0001) > shap_filt_uvStar=.FALSE.,
(PID.TID 0000.0001) > shap_filt_TrStagg=.TRUE.,
(PID.TID 0000.0001) > Shap_funct=2,
(PID.TID 0000.0001) > nShapT=4,
(PID.TID 0000.0001) > nShapUV=4,
(PID.TID 0000.0001) > nShapTrPhys=1,
(PID.TID 0000.0001) > nShapUVPhys=0,
(PID.TID 0000.0001) > Shap_TrLength=140000.,
(PID.TID 0000.0001) >#Shap_uvLength=140000.,
(PID.TID 0000.0001) > Shap_Trtau=5400.,
(PID.TID 0000.0001) > Shap_uvtau=1800.,
(PID.TID 0000.0001) >#Shap_diagFreq=2592000.,
(PID.TID 0000.0001) > /
(PID.TID 0000.0001) 
(PID.TID 0000.0001)  SHAP_FILT_READPARMS: finished reading data.shap
(PID.TID 0000.0001) Shap_funct =   /* select Shapiro filter function */
(PID.TID 0000.0001)                       2
(PID.TID 0000.0001)     ;
(PID.TID 0000.0001) nShapT =   /* power of Shapiro filter for Temperat */
(PID.TID 0000.0001)                       4
(PID.TID 0000.0001)     ;
(PID.TID 0000.0001) nShapS =   /* power of Shapiro filter for Salinity */
(PID.TID 0000.0001)                       4
(PID.TID 0000.0001)     ;
(PID.TID 0000.0001) nShapUV =   /* power of Shapiro filter for momentum */
(PID.TID 0000.0001)                       4
(PID.TID 0000.0001)     ;
(PID.TID 0000.0001) shap_filt_uvStar = /* apply filter before Press. Solver */
(PID.TID 0000.0001)                   F
(PID.TID 0000.0001)     ;
(PID.TID 0000.0001) shap_filt_TrStagg = /* filter T,S before calc PhiHyd (staggerTimeStep) */
(PID.TID 0000.0001)                   T
(PID.TID 0000.0001)     ;
(PID.TID 0000.0001) Shap_alwaysExchUV = /* always exch(U,V)    nShapUV times*/
(PID.TID 0000.0001)                   F
(PID.TID 0000.0001)     ;
(PID.TID 0000.0001) Shap_alwaysExchTr = /* always exch(Tracer) nShapTr times*/
(PID.TID 0000.0001)                   F
(PID.TID 0000.0001)     ;
(PID.TID 0000.0001) nShapTrPhys =   /* power of physical-space filter (Tracer) */
(PID.TID 0000.0001)                       1
(PID.TID 0000.0001)     ;
(PID.TID 0000.0001) nShapUVPhys =   /* power of physical-space filter (Momentum) */
(PID.TID 0000.0001)                       0
(PID.TID 0000.0001)     ;
(PID.TID 0000.0001) Shap_Trtau =   /* time scale of Shapiro filter (Tracer) */
(PID.TID 0000.0001)                 5.400000000000000E+03
(PID.TID 0000.0001)     ;
(PID.TID 0000.0001) Shap_TrLength =   /* Length scale of Shapiro filter (Tracer) */
(PID.TID 0000.0001)                 1.400000000000000E+05
(PID.TID 0000.0001)     ;
(PID.TID 0000.0001) Shap_uvtau =   /* time scale of Shapiro filter (Momentum) */
(PID.TID 0000.0001)                 1.800000000000000E+03
(PID.TID 0000.0001)     ;
(PID.TID 0000.0001) Shap_uvLength =   /* Length scale of Shapiro filter (Momentum) */
(PID.TID 0000.0001)                 0.000000000000000E+00
(PID.TID 0000.0001)     ;
(PID.TID 0000.0001) Shap_noSlip =  /* No-slip parameter (0=Free-slip ; 1=No-slip)*/
(PID.TID 0000.0001)                 0.000000000000000E+00
(PID.TID 0000.0001)     ;
(PID.TID 0000.0001) Shap_diagFreq =   /* Frequency^-1 for diagnostic output (s)*/
(PID.TID 0000.0001)                 0.000000000000000E+00
(PID.TID 0000.0001)     ;
(PID.TID 0000.0001)  THSICE_READPARMS: opening data.ice
(PID.TID 0000.0001)  OPEN_COPY_DATA_FILE: opening file data.ice
(PID.TID 0000.0001) // =======================================================
(PID.TID 0000.0001) // Parameter file "data.ice"
(PID.TID 0000.0001) // =======================================================
(PID.TID 0000.0001) > &THSICE_CONST
(PID.TID 0000.0001) > Tf0kel  = 273.15,
(PID.TID 0000.0001) > rhosw   = 1030.,
(PID.TID 0000.0001) >#- with LANL albedo:
(PID.TID 0000.0001) >#albWarmSnow= 0.75,
(PID.TID 0000.0001) > iceMaskMin = 0.01,
(PID.TID 0000.0001) > hThinIce   = 0.1,
(PID.TID 0000.0001) > hiMax      = 10.,
(PID.TID 0000.0001) > hsMax      = 10.,
(PID.TID 0000.0001) >#albIceMax  = 0.7,
(PID.TID 0000.0001) >#albIceMin  = 0.7,
(PID.TID 0000.0001) > /
(PID.TID 0000.0001) >
(PID.TID 0000.0001) > &THSICE_PARM01
(PID.TID 0000.0001) >#startIceModel=1,
(PID.TID 0000.0001) > stepFwd_oceMxL=.TRUE.,
(PID.TID 0000.0001) >#ocean_deltaT=3600.,
(PID.TID 0000.0001) > tauRelax_MxL=5184000.,
(PID.TID 0000.0001) >#thSIceAdvScheme=1,
(PID.TID 0000.0001) >#thSIce_diffK   =800.,
(PID.TID 0000.0001) > stressReduction=0.,
(PID.TID 0000.0001) >#thSIce_taveFreq=2592000.,
(PID.TID 0000.0001) > thSIce_diagFreq=5184000.,
(PID.TID 0000.0001) >#thSIce_monFreq=864000.,
(PID.TID 0000.0001) >#thSIce_diagFreq=0.,
(PID.TID 0000.0001) > /
(PID.TID 0000.0001) >
(PID.TID 0000.0001) 
(PID.TID 0000.0001)  THSICE_READPARMS: read THSICE_CONST
(PID.TID 0000.0001)  THSICE_READPARMS: read THSICE_PARM01
 ThSI:       rhos        =  3.3000000000000E+02
 ThSI:       rhoi        =  9.0000000000000E+02
 ThSI:       rhosw       =  1.0300000000000E+03
 ThSI:       rhofw       =  1.0000000000000E+03
 ThSI:       floodFac    =  3.9393939393939E-01
 ThSI:       cpIce       =  2.1060000000000E+03
 ThSI:       cpWater     =  3.9940000000000E+03
 ThSI:       kIce        =  2.0300000000000E+00
 ThSI:       kSnow       =  3.0000000000000E-01
 ThSI:       bMeltCoef   =  6.0000000000000E-03
 ThSI:       Lfresh      =  3.3400000000000E+05
 ThSI:       qsnow       =  3.3400000000000E+05
 ThSI:       albColdSnow =  8.5000000000000E-01
 ThSI:       albWarmSnow =  7.0000000000000E-01
 ThSI:       tempSnowAlb = -1.0000000000000E+01
 ThSI:       albOldSnow  =  5.5000000000000E-01
 ThSI:       hNewSnowAge =  2.0000000000000E-03
 ThSI:       snowAgTime  =  4.3200000000000E+06
 ThSI:       albIceMax   =  6.5000000000000E-01
 ThSI:       albIceMin   =  2.0000000000000E-01
 ThSI:       hAlbIce     =  5.0000000000000E-01
 ThSI:       hAlbSnow    =  3.0000000000000E-01
 ThSI:       i0swFrac    =  3.0000000000000E-01
 ThSI:       ksolar      =  1.5000000000000E+00
 ThSI:       dhSnowLin   =  0.0000000000000E+00
 ThSI:       saltIce     =  4.0000000000000E+00
 ThSI:       S_winton    =  1.0000000000000E+00
 ThSI:       mu_Tf       =  5.4000000000000E-02
 ThSI:       Tf0kel      =  2.7315000000000E+02
 ThSI:       Tmlt1       = -5.4000000000000E-02
 ThSI:       Terrmax     =  5.0000000000000E-01
 ThSI:       nitMaxTsf   =        20
 ThSI:       hIceMin     =  1.0000000000000E-02
 ThSI:       hiMax       =  1.0000000000000E+01
 ThSI:       hsMax       =  1.0000000000000E+01
 ThSI:       iceMaskMax  =  1.0000000000000E+00
 ThSI:       iceMaskMin  =  1.0000000000000E-02
 ThSI:       fracEnMelt  =  4.0000000000000E-01
 ThSI:       fracEnFreez =  0.0000000000000E+00
 ThSI:       hThinIce    =  1.0000000000000E-01
 ThSI:       hThickIce   =  2.5000000000000E+00
 ThSI:       hNewIceMax  =  1.0000000000000E+01
 ThSI: stressReduction   =  0.0000000000000E+00
 ThSI: thSIce_skipThermo =         F
 ThSI: thSIceAdvScheme   =         0
 ThSI: thSIceBalanceAtmFW=         0
 ThSI: thSIce_diffK      =  0.0000000000000E+00
 ThSI: thSIce_deltaT     =  4.5000000000000E+02
 ThSI: ocean_deltaT      =  4.5000000000000E+02
 ThSI: stepFwd_oceMxL    =         T
 ThSI: tauRelax_MxL      =  5.1840000000000E+06
 ThSI: tauRelax_MxL_salt =  5.1840000000000E+06
 ThSI: hMxL_default      =  5.0000000000000E+01
 ThSI: sMxL_default      =  3.5000000000000E+01
 ThSI: vMxL_default      =  5.0000000000000E-02
 ThSI: thSIce_taveFreq   =  2.5920000000000E+06
 ThSI: thSIce_diagFreq   =  5.1840000000000E+06
 ThSI: thSIce_monFreq    =  1.0000000000000E+00
 ThSI: startIceModel     =         0
(PID.TID 0000.0001)  DIAGNOSTICS_READPARMS: opening data.diagnostics
(PID.TID 0000.0001)  OPEN_COPY_DATA_FILE: opening file data.diagnostics
(PID.TID 0000.0001) // =======================================================
(PID.TID 0000.0001) // Parameter file "data.diagnostics"
(PID.TID 0000.0001) // =======================================================
(PID.TID 0000.0001) ># Diagnostic Package Choices
(PID.TID 0000.0001) >#--------------------
(PID.TID 0000.0001) >#  dumpAtLast (logical): always write output at the end of simulation (default=F)
(PID.TID 0000.0001) >#  diag_mnc   (logical): write to NetCDF files (default=useMNC)
(PID.TID 0000.0001) >#--for each output-stream:
(PID.TID 0000.0001) >#  fileName(n) : prefix of the output file name (max 80c long) for outp.stream n
(PID.TID 0000.0001) >#  frequency(n):< 0 : write snap-shot output every |frequency| seconds
(PID.TID 0000.0001) >#               > 0 : write time-average output every frequency seconds
(PID.TID 0000.0001) >#  timePhase(n)     : write at time = timePhase + multiple of |frequency|
(PID.TID 0000.0001) >#    averagingFreq  : frequency (in s) for periodic averaging interval
(PID.TID 0000.0001) >#    averagingPhase : phase     (in s) for periodic averaging interval
(PID.TID 0000.0001) >#    repeatCycle    : number of averaging intervals in 1 cycle
(PID.TID 0000.0001) >#  levels(:,n) : list of levels to write to file (Notes: declared as REAL)
(PID.TID 0000.0001) >#                when this entry is missing, select all common levels of this list
(PID.TID 0000.0001) >#  fields(:,n) : list of selected diagnostics fields (8.c) in outp.stream n
(PID.TID 0000.0001) >#                (see "available_diagnostics.log" file for the full list of diags)
(PID.TID 0000.0001) >#  missing_value(n) : missing value for real-type fields in output file "n"
(PID.TID 0000.0001) >#  fileFlags(n)     : specific code (8c string) for output file "n"
(PID.TID 0000.0001) >#--------------------
(PID.TID 0000.0001) > &DIAGNOSTICS_LIST
(PID.TID 0000.0001) >  fields(1:3,1)  = 'ETAN    ','ETANSQ  ','DETADT2 ',
(PID.TID 0000.0001) >   levels(1,1) = 1.,
(PID.TID 0000.0001) >   fileName(1) = 'surfDiag',
(PID.TID 0000.0001) >  frequency(1) = 4500.,
(PID.TID 0000.0001) >  fields(1:20,2) = 'UVEL    ','VVEL    ','WVEL    ','THETA   ','SALT    ',
(PID.TID 0000.0001) >                   'UVELSQ  ','VVELSQ  ','WVELSQ  ','THETASQ ',
(PID.TID 0000.0001) >                   'UV_VEL_Z','PHIHYD  ','PHIHYDSQ',
(PID.TID 0000.0001) >                   'UVELMASS','VVELMASS',
(PID.TID 0000.0001) >                   'UTHMASS ','VTHMASS ','WVELTH  ',
(PID.TID 0000.0001) >                   'USLTMASS','VSLTMASS','WVELSLT ',
(PID.TID 0000.0001) >   levels(1:5,2) = 1.,2.,3.,4.,5.,
(PID.TID 0000.0001) >   fileName(2) = 'dynDiag',
(PID.TID 0000.0001) >  frequency(2) = 4500.,
(PID.TID 0000.0001) >  fields(1:20,3) = 'UFLUX   ','VFLUX   ',
(PID.TID 0000.0001) >                   'TSR     ','OLR     ','RADSWG  ','RADLWG  ',
(PID.TID 0000.0001) >                   'HFLUX   ','EVAP    ','PRECON  ','PRECLS  ',
(PID.TID 0000.0001) >                   'CLDFRC  ','CLDPRS  ','CLDMAS  ',
(PID.TID 0000.0001) >                   'DRAG    ','WINDS   ','TS      ','QS      ',
(PID.TID 0000.0001) >                   'ENPREC  ','ALBVISDF','DTSIMPL ',
(PID.TID 0000.0001) >#                  'DWNLWG  ',
(PID.TID 0000.0001) >#                  'TSRCLR  ','OLRCLR  ','SWGCLR  ','LWGCLR  ',
(PID.TID 0000.0001) >   fileName(3) = 'aimDiag',
(PID.TID 0000.0001) >  frequency(3) = 4500.,
(PID.TID 0000.0001) >  fields(1:9,4) =  'RELHUM  ','DIABT   ','DIABQ   ',
(PID.TID 0000.0001) >                   'RADSW   ','RADLW   ','DTCONV  ','DTLS    ',
(PID.TID 0000.0001) >                   'DQCONV  ','DQLS    ',
(PID.TID 0000.0001) >#                  'SWCLR   ', 'LWCLR   ',
(PID.TID 0000.0001) >   fileName(4) = 'aimDDT',
(PID.TID 0000.0001) >  frequency(4) = 4500.,
(PID.TID 0000.0001) >  fields(1:14,5) = 'SI_Fract','SI_Thick','SI_SnowH',
(PID.TID 0000.0001) >                   'SI_Tsrf ','SI_Tice1','SI_Tice2',
(PID.TID 0000.0001) >                   'SI_Qice1','SI_Qice2','SIsnwAge',
(PID.TID 0000.0001) >                   'SIsnwPrc','SIalbedo',
(PID.TID 0000.0001) >                   'SIflx2oc','SIfrw2oc','SIsaltFx',
(PID.TID 0000.0001) >#                  'SIflxAtm','SIfrwAtm',
(PID.TID 0000.0001) >#                  'SItOcMxL','SIsOcMxL',
(PID.TID 0000.0001) >   fileName(5) = 'thSIceDiag',
(PID.TID 0000.0001) >  frequency(5) = 4500.,
(PID.TID 0000.0001) > /
(PID.TID 0000.0001) >
(PID.TID 0000.0001) >#--------------------
(PID.TID 0000.0001) ># Parameter for Diagnostics of per level statistics:
(PID.TID 0000.0001) >#--------------------
(PID.TID 0000.0001) >#  diagSt_mnc (logical): write stat-diags to NetCDF files (default=diag_mnc)
(PID.TID 0000.0001) >#  diagSt_regMaskFile : file containing the region-mask to read-in
(PID.TID 0000.0001) >#  nSetRegMskFile   : number of region-mask sets within the region-mask file
(PID.TID 0000.0001) >#  set_regMask(i)   : region-mask set-index that identifies the region "i"
(PID.TID 0000.0001) >#  val_regMask(i)   : region "i" identifier value in the region mask
(PID.TID 0000.0001) >#--for each output-stream:
(PID.TID 0000.0001) >#  stat_fName(n) : prefix of the output file name (max 80c long) for outp.stream n
(PID.TID 0000.0001) >#  stat_freq(n):< 0 : write snap-shot output every |stat_freq| seconds
(PID.TID 0000.0001) >#               > 0 : write time-average output every stat_freq seconds
(PID.TID 0000.0001) >#  stat_phase(n)    : write at time = stat_phase + multiple of |stat_freq|
(PID.TID 0000.0001) >#  stat_region(:,n) : list of "regions" (default: 1 region only=global)
(PID.TID 0000.0001) >#  stat_fields(:,n) : list of selected diagnostics fields (8.c) in outp.stream n
(PID.TID 0000.0001) >#                (see "available_diagnostics.log" file for the full list of diags)
(PID.TID 0000.0001) >#--------------------
(PID.TID 0000.0001) > &DIAG_STATIS_PARMS
(PID.TID 0000.0001) >#- regional mask: 3 lat. band: 1 : y <= -24 ; 2 : -24<y<24 ; 3 : 24 <= y
(PID.TID 0000.0001) > diagSt_regMaskFile='regMask_lat24.bin',
(PID.TID 0000.0001) > nSetRegMskFile = 1,
(PID.TID 0000.0001) > set_regMask(1:3) = 1,  1,  1,
(PID.TID 0000.0001) > val_regMask(1:3) = 1., 2., 3.,
(PID.TID 0000.0001) >#- an example just to check the agreement with MONITOR output:
(PID.TID 0000.0001) > stat_fields(1:5,1)  = 'ETAN    ','UVEL    ','VVEL    ','WVEL    ', 'THETA   ',
(PID.TID 0000.0001) >  stat_fName(1) = 'dynStDiag',
(PID.TID 0000.0001) >   stat_freq(1) = -3600.,
(PID.TID 0000.0001) >  stat_phase(1) = 0.,
(PID.TID 0000.0001) > stat_fields(1:4,4)  = 'LdSnowH ', 'GrdSurfT', 'GrdTemp ', 'GrdWater',
(PID.TID 0000.0001) >  stat_region(1:3,4) = 1, 2, 3,
(PID.TID 0000.0001) >  stat_fName(4) = 'landStDiag',
(PID.TID 0000.0001) >   stat_freq(4) = -3600.,
(PID.TID 0000.0001) >  stat_phase(4) = 0.,
(PID.TID 0000.0001) > stat_fields(1:12,5) = 'SI_Fract', 'SI_Thick', 'SI_SnowH',
(PID.TID 0000.0001) >                   'SI_Tsrf ', 'SI_Tice1', 'SI_Tice2',
(PID.TID 0000.0001) >#                  'SI_Qice1', 'SI_Qice2',
(PID.TID 0000.0001) >                   'SIsnwPrc', 'SIalbedo', 'SIsnwAge',
(PID.TID 0000.0001) >                   'SIflx2oc', 'SIfrw2oc', 'SIsaltFx',
(PID.TID 0000.0001) >  stat_region(1:3,5) = 1, 3, 0,
(PID.TID 0000.0001) >  stat_fName(5) = 'thSIceStDiag',
(PID.TID 0000.0001) >   stat_freq(5) = -3600.,
(PID.TID 0000.0001) >  stat_phase(5) = 0.,
(PID.TID 0000.0001) > /
(PID.TID 0000.0001) >
(PID.TID 0000.0001) 
(PID.TID 0000.0001) S/R DIAGNOSTICS_READPARMS, read namelist "diagnostics_list": start
(PID.TID 0000.0001) S/R DIAGNOSTICS_READPARMS, read namelist "diagnostics_list": OK
(PID.TID 0000.0001) S/R DIAGNOSTICS_READPARMS, read namelist "DIAG_STATIS_PARMS": start
(PID.TID 0000.0001) S/R DIAGNOSTICS_READPARMS, read namelist "DIAG_STATIS_PARMS": OK
(PID.TID 0000.0001)  DIAGNOSTICS_READPARMS: global parameter summary:
(PID.TID 0000.0001)  dumpAtLast = /* always write time-ave diags at the end */
(PID.TID 0000.0001)                   F
(PID.TID 0000.0001)     ;
(PID.TID 0000.0001)  diag_mnc =   /* write NetCDF output files */
(PID.TID 0000.0001)                   F
(PID.TID 0000.0001)     ;
(PID.TID 0000.0001)  useMissingValue = /* put MissingValue where mask = 0 */
(PID.TID 0000.0001)                   F
(PID.TID 0000.0001)     ;
(PID.TID 0000.0001)  diagCG_maxIters = /* max number of iters in diag_cg2d */
(PID.TID 0000.0001)                     200
(PID.TID 0000.0001)     ;
(PID.TID 0000.0001)  diagCG_resTarget = /* residual target for diag_cg2d */
(PID.TID 0000.0001)                 1.000000000000000E-07
(PID.TID 0000.0001)     ;
(PID.TID 0000.0001) -----------------------------------------------------
(PID.TID 0000.0001)  DIAGNOSTICS_READPARMS: active diagnostics summary:
(PID.TID 0000.0001) -----------------------------------------------------
(PID.TID 0000.0001) Creating Output Stream: surfDiag
(PID.TID 0000.0001) Output Frequency:       4500.000000 ; Phase:           0.000000
(PID.TID 0000.0001)  Averaging Freq.:       4500.000000 , Phase:           0.000000 , Cycle:   1
(PID.TID 0000.0001)  missing value:  1.234567000000E+05 ; for integers:   123456789
(PID.TID 0000.0001)  Levels:       1.
(PID.TID 0000.0001)  Fields:    ETAN     ETANSQ   DETADT2
(PID.TID 0000.0001) Creating Output Stream: dynDiag
(PID.TID 0000.0001) Output Frequency:       4500.000000 ; Phase:           0.000000
(PID.TID 0000.0001)  Averaging Freq.:       4500.000000 , Phase:           0.000000 , Cycle:   1
(PID.TID 0000.0001)  missing value:  1.234567000000E+05 ; for integers:   123456789
(PID.TID 0000.0001)  Levels:       1.   2.   3.   4.   5.
(PID.TID 0000.0001)  Fields:    UVEL     VVEL     WVEL     THETA    SALT     UVELSQ   VVELSQ   WVELSQ   THETASQ  UV_VEL_Z
(PID.TID 0000.0001)  Fields:    PHIHYD   PHIHYDSQ UVELMASS VVELMASS UTHMASS  VTHMASS  WVELTH   USLTMASS VSLTMASS WVELSLT
(PID.TID 0000.0001) Creating Output Stream: aimDiag
(PID.TID 0000.0001) Output Frequency:       4500.000000 ; Phase:           0.000000
(PID.TID 0000.0001)  Averaging Freq.:       4500.000000 , Phase:           0.000000 , Cycle:   1
(PID.TID 0000.0001)  missing value:  1.234567000000E+05 ; for integers:   123456789
(PID.TID 0000.0001)  Levels:    will be set later
(PID.TID 0000.0001)  Fields:    UFLUX    VFLUX    TSR      OLR      RADSWG   RADLWG   HFLUX    EVAP     PRECON   PRECLS
(PID.TID 0000.0001)  Fields:    CLDFRC   CLDPRS   CLDMAS   DRAG     WINDS    TS       QS       ENPREC   ALBVISDF DTSIMPL
(PID.TID 0000.0001) Creating Output Stream: aimDDT
(PID.TID 0000.0001) Output Frequency:       4500.000000 ; Phase:           0.000000
(PID.TID 0000.0001)  Averaging Freq.:       4500.000000 , Phase:           0.000000 , Cycle:   1
(PID.TID 0000.0001)  missing value:  1.234567000000E+05 ; for integers:   123456789
(PID.TID 0000.0001)  Levels:    will be set later
(PID.TID 0000.0001)  Fields:    RELHUM   DIABT    DIABQ    RADSW    RADLW    DTCONV   DTLS     DQCONV   DQLS
(PID.TID 0000.0001) Creating Output Stream: thSIceDiag
(PID.TID 0000.0001) Output Frequency:       4500.000000 ; Phase:           0.000000
(PID.TID 0000.0001)  Averaging Freq.:       4500.000000 , Phase:           0.000000 , Cycle:   1
(PID.TID 0000.0001)  missing value:  1.234567000000E+05 ; for integers:   123456789
(PID.TID 0000.0001)  Levels:    will be set later
(PID.TID 0000.0001)  Fields:    SI_Fract SI_Thick SI_SnowH SI_Tsrf  SI_Tice1 SI_Tice2 SI_Qice1 SI_Qice2 SIsnwAge SIsnwPrc
(PID.TID 0000.0001)  Fields:    SIalbedo SIflx2oc SIfrw2oc SIsaltFx
(PID.TID 0000.0001) -----------------------------------------------------
(PID.TID 0000.0001)  DIAGNOSTICS_READPARMS: statistics diags. summary:
(PID.TID 0000.0001) Creating Stats. Output Stream: dynStDiag
(PID.TID 0000.0001) Output Frequency:      -3600.000000 ; Phase:           0.000000
(PID.TID 0000.0001)  Regions:   0
(PID.TID 0000.0001)  Fields:    ETAN     UVEL     VVEL     WVEL     THETA
(PID.TID 0000.0001) Creating Stats. Output Stream: landStDiag
(PID.TID 0000.0001) Output Frequency:      -3600.000000 ; Phase:           0.000000
(PID.TID 0000.0001)  Regions:   1  2  3
(PID.TID 0000.0001)  Fields:    LdSnowH  GrdSurfT GrdTemp  GrdWater
(PID.TID 0000.0001) Creating Stats. Output Stream: thSIceStDiag
(PID.TID 0000.0001) Output Frequency:      -3600.000000 ; Phase:           0.000000
(PID.TID 0000.0001)  Regions:   0  1  3
(PID.TID 0000.0001)  Fields:    SI_Fract SI_Thick SI_SnowH SI_Tsrf  SI_Tice1 SI_Tice2 SIsnwPrc SIalbedo SIsnwAge SIflx2oc
(PID.TID 0000.0001)  Fields:    SIfrw2oc SIsaltFx
(PID.TID 0000.0001) -----------------------------------------------------
(PID.TID 0000.0001) 
(PID.TID 0000.0001) SET_PARMS: done
(PID.TID 0000.0001) Enter INI_VERTICAL_GRID: setInterFDr=    T ; setCenterDr=    F
(PID.TID 0000.0001) tile:   1 ; Read from file tile001.mitgrid
(PID.TID 0000.0001)   => xC yC dxF dyF rA xG yG dxV dyU rAz dxC dyC rAw rAs dxG dyG
(PID.TID 0000.0001) tile:   2 ; Read from file tile002.mitgrid
(PID.TID 0000.0001)   => xC yC dxF dyF rA xG yG dxV dyU rAz dxC dyC rAw rAs dxG dyG
(PID.TID 0000.0001) tile:   3 ; Read from file tile003.mitgrid
(PID.TID 0000.0001)   => xC yC dxF dyF rA xG yG dxV dyU rAz dxC dyC rAw rAs dxG dyG
(PID.TID 0000.0001) tile:   4 ; Read from file tile004.mitgrid
(PID.TID 0000.0001)   => xC yC dxF dyF rA xG yG dxV dyU rAz dxC dyC rAw rAs dxG dyG
(PID.TID 0000.0001) tile:   5 ; Read from file tile005.mitgrid
(PID.TID 0000.0001)   => xC yC dxF dyF rA xG yG dxV dyU rAz dxC dyC rAw rAs dxG dyG
(PID.TID 0000.0001) tile:   6 ; Read from file tile006.mitgrid
(PID.TID 0000.0001)   => xC yC dxF dyF rA xG yG dxV dyU rAz dxC dyC rAw rAs dxG dyG
(PID.TID 0000.0001) %MON XC_max                       =   1.7854351589505E+02
(PID.TID 0000.0001) %MON XC_min                       =  -1.7854351589505E+02
(PID.TID 0000.0001) %MON XC_mean                      =  -4.6999441375798E-15
(PID.TID 0000.0001) %MON XC_sd                        =   1.0355545336287E+02
(PID.TID 0000.0001) %MON XG_max                       =   1.8000000000000E+02
(PID.TID 0000.0001) %MON XG_min                       =  -1.7708797161002E+02
(PID.TID 0000.0001) %MON XG_mean                      =   1.8603515625000E+00
(PID.TID 0000.0001) %MON XG_sd                        =   1.0357130300504E+02
(PID.TID 0000.0001) %MON DXC_max                      =   3.2375185836900E+05
(PID.TID 0000.0001) %MON DXC_min                      =   1.1142031410131E+05
(PID.TID 0000.0001) %MON DXC_mean                     =   2.8605689051214E+05
(PID.TID 0000.0001) %MON DXC_sd                       =   3.4042087138252E+04
(PID.TID 0000.0001) %MON DXF_max                      =   3.2369947500827E+05
(PID.TID 0000.0001) %MON DXF_min                      =   1.2020820513318E+05
(PID.TID 0000.0001) %MON DXF_mean                     =   2.8605437324820E+05
(PID.TID 0000.0001) %MON DXF_sd                       =   3.4050524252539E+04
(PID.TID 0000.0001) %MON DXG_max                      =   3.2375195872773E+05
(PID.TID 0000.0001) %MON DXG_min                      =   1.0098378008791E+05
(PID.TID 0000.0001) %MON DXG_mean                     =   2.8603818508931E+05
(PID.TID 0000.0001) %MON DXG_sd                       =   3.4140406908005E+04
(PID.TID 0000.0001) %MON DXV_max                      =   3.2380418162750E+05
(PID.TID 0000.0001) %MON DXV_min                      =   8.0152299824136E+04
(PID.TID 0000.0001) %MON DXV_mean                     =   2.8603970633619E+05
(PID.TID 0000.0001) %MON DXV_sd                       =   3.4145142117723E+04
(PID.TID 0000.0001) %MON YC_max                       =   8.7940663871962E+01
(PID.TID 0000.0001) %MON YC_min                       =  -8.7940663871962E+01
(PID.TID 0000.0001) %MON YC_mean                      =   0.0000000000000E+00
(PID.TID 0000.0001) %MON YC_sd                        =   3.8676242969072E+01
(PID.TID 0000.0001) %MON YG_max                       =   9.0000000000000E+01
(PID.TID 0000.0001) %MON YG_min                       =  -9.0000000000000E+01
(PID.TID 0000.0001) %MON YG_mean                      =  -1.1842378929335E-15
(PID.TID 0000.0001) %MON YG_sd                        =   3.8676895860710E+01
(PID.TID 0000.0001) %MON DYC_max                      =   3.2375185836900E+05
(PID.TID 0000.0001) %MON DYC_min                      =   1.1142031410131E+05
(PID.TID 0000.0001) %MON DYC_mean                     =   2.8605689051214E+05
(PID.TID 0000.0001) %MON DYC_sd                       =   3.4042087138252E+04
(PID.TID 0000.0001) %MON DYF_max                      =   3.2369947500827E+05
(PID.TID 0000.0001) %MON DYF_min                      =   1.2020820513318E+05
(PID.TID 0000.0001) %MON DYF_mean                     =   2.8605437324820E+05
(PID.TID 0000.0001) %MON DYF_sd                       =   3.4050524252539E+04
(PID.TID 0000.0001) %MON DYG_max                      =   3.2375195872773E+05
(PID.TID 0000.0001) %MON DYG_min                      =   1.0098378008791E+05
(PID.TID 0000.0001) %MON DYG_mean                     =   2.8603818508931E+05
(PID.TID 0000.0001) %MON DYG_sd                       =   3.4140406908005E+04
(PID.TID 0000.0001) %MON DYU_max                      =   3.2380418162750E+05
(PID.TID 0000.0001) %MON DYU_min                      =   8.0152299824136E+04
(PID.TID 0000.0001) %MON DYU_mean                     =   2.8603970633619E+05
(PID.TID 0000.0001) %MON DYU_sd                       =   3.4145142117723E+04
(PID.TID 0000.0001) %MON RA_max                       =   1.0479260248419E+11
(PID.TID 0000.0001) %MON RA_min                       =   1.4019007022556E+10
(PID.TID 0000.0001) %MON RA_mean                      =   8.2992246709265E+10
(PID.TID 0000.0001) %MON RA_sd                        =   1.7509089299457E+10
(PID.TID 0000.0001) %MON RAW_max                      =   1.0480965274559E+11
(PID.TID 0000.0001) %MON RAW_min                      =   1.2166903467143E+10
(PID.TID 0000.0001) %MON RAW_mean                     =   8.2992246709235E+10
(PID.TID 0000.0001) %MON RAW_sd                       =   1.7481917919656E+10
(PID.TID 0000.0001) %MON RAS_max                      =   1.0480965274559E+11
(PID.TID 0000.0001) %MON RAS_min                      =   1.2166903467143E+10
(PID.TID 0000.0001) %MON RAS_mean                     =   8.2992246709235E+10
(PID.TID 0000.0001) %MON RAS_sd                       =   1.7481917919656E+10
(PID.TID 0000.0001) %MON RAZ_max                      =   1.0484349334619E+11
(PID.TID 0000.0001) %MON RAZ_min                      =   8.8317900612505E+09
(PID.TID 0000.0001) %MON RAZ_mean                     =   8.2992246709235E+10
(PID.TID 0000.0001) %MON RAZ_sd                       =   1.7482297311044E+10
(PID.TID 0000.0001) %MON AngleCS_max                  =   9.9999994756719E-01
(PID.TID 0000.0001) %MON AngleCS_min                  =  -9.9968286884824E-01
(PID.TID 0000.0001) %MON AngleCS_mean                 =   3.3078922539000E-01
(PID.TID 0000.0001) %MON AngleCS_sd                   =   6.2496278958502E-01
(PID.TID 0000.0001) %MON AngleSN_max                  =   9.9968286884824E-01
(PID.TID 0000.0001) %MON AngleSN_min                  =  -9.9999994756719E-01
(PID.TID 0000.0001) %MON AngleSN_mean                 =  -3.3078922539000E-01
(PID.TID 0000.0001) %MON AngleSN_sd                   =   6.2496278958502E-01
(PID.TID 0000.0001) 
(PID.TID 0000.0001) SET_REF_STATE: PhiRef/g [m] at level Center (integer)
(PID.TID 0000.0001)                      and at level Interface (half-int.) :
(PID.TID 0000.0001)  K=  0.5  ;  r=       100000.0  ;  phiRef/g=        0.000
(PID.TID 0000.0001)  K=  1.0  ;  r=        95000.0  ;  phiRef/g=      431.199
(PID.TID 0000.0001)  K=  1.5  ;  r=        90000.0  ;  phiRef/g=     1256.487
(PID.TID 0000.0001)  K=  2.0  ;  r=        77500.0  ;  phiRef/g=     2105.998
(PID.TID 0000.0001)  K=  2.5  ;  r=        65000.0  ;  phiRef/g=     3775.246
(PID.TID 0000.0001)  K=  3.0  ;  r=        50000.0  ;  phiRef/g=     5536.327
(PID.TID 0000.0001)  K=  3.5  ;  r=        35000.0  ;  phiRef/g=     7908.298
(PID.TID 0000.0001)  K=  4.0  ;  r=        25000.0  ;  phiRef/g=    10440.915
(PID.TID 0000.0001)  K=  4.5  ;  r=        15000.0  ;  phiRef/g=    13806.721
(PID.TID 0000.0001)  K=  5.0  ;  r=         7500.0  ;  phiRef/g=    18190.889
(PID.TID 0000.0001)  K=  5.5  ;  r=            0.0  ;  phiRef/g=    39547.504
(PID.TID 0000.0001)  MDS_READ_FIELD: opening global file: topo.cpl_FM.bin
(PID.TID 0000.0001) // =======================================================
(PID.TID 0000.0001) // Field Model R_low (ini_masks_etc)
(PID.TID 0000.0001) // CMIN =          1.000000000000000E+32
(PID.TID 0000.0001) // CMAX =         -1.000000000000000E+32
(PID.TID 0000.0001) // CINT =          0.000000000000000E+00
(PID.TID 0000.0001) // SYMBOLS (CMIN->CMAX): -abcdefghijklmnopqrstuvwxyz+
(PID.TID 0000.0001) //                  0.0: .
(PID.TID 0000.0001) // RANGE I (Lo:Hi:Step):(    -1:   194:     1)
(PID.TID 0000.0001) // RANGE J (Lo:Hi:Step):(    34:    -1:    -1)
(PID.TID 0000.0001) // RANGE K (Lo:Hi:Step):(   1:   1:   1)
(PID.TID 0000.0001) // =======================================================
(PID.TID 0000.0001) // =======================================================
(PID.TID 0000.0001) // END OF FIELD                                          =
(PID.TID 0000.0001) // =======================================================
(PID.TID 0000.0001) 
(PID.TID 0000.0001) // =======================================================
(PID.TID 0000.0001) // Field Model Ro_surf (ini_masks_etc)
(PID.TID 0000.0001) // CMIN =          4.905667583685931E+04
(PID.TID 0000.0001) // CMAX =          1.000000000000000E+05
(PID.TID 0000.0001) // CINT =          1.886789783820026E+03
(PID.TID 0000.0001) // SYMBOLS (CMIN->CMAX): -abcdefghijklmnopqrstuvwxyz+
(PID.TID 0000.0001) //                  0.0: .
(PID.TID 0000.0001) // RANGE I (Lo:Hi:Step):(    -1:   194:     1)
(PID.TID 0000.0001) // RANGE J (Lo:Hi:Step):(    34:    -1:    -1)
(PID.TID 0000.0001) // RANGE K (Lo:Hi:Step):(   1:   1:   1)
(PID.TID 0000.0001) // =======================================================
(PID.TID 0000.0001) K =   1
(PID.TID 0000.0001) //                I=8       I=18      I=28      I=34      I=44      I=54      I=64      I=70      I=80      I=90      I=96      I=106     I=116     I=126     I=132     I=142     I=152     I=162     I=168     I=178     I=188
(PID.TID 0000.0001) // |--J--|101234567|901234567|901234567|901234123|567890123|567890123|567890123|563456789|123456789|123456789|123456785|789012345|789012345|789012345|789078901|345678901|345678901|345678901|901234567|901234567|901234567|901234
(PID.TID 0000.0001) //     34 ++++++++++++++++++zxwwwwwy++++nmnounnounny+zzzzzxxwwrnmmmqsuvvxxw+++++++++++++++++++++xxyzyxwtmlnnoy+++++++++++++++++++++++++++++++++++++++++++++++++++++++++++++++yxxwwxy++++++++++++++++++++++++++++++++++++++++++++++
(PID.TID 0000.0001) //     33 ++++++++++++++++++wttvwww++ywqstuuuouuuooy+yyzzyxwwqoomlmqtvutwyy++++++++++++++++++++xxxyyyxwunmnopx+++++++++++++++++++++++++++++++++++++++++++++++++++++++++++++++zyxwwwwy+++++++++++++++++++++++++++++++++++++++++++++
(PID.TID 0000.0001) //     32 ++++++++++++++++++wy+y+ww+xsrtwxyxvoyxvonrywwzywommlmpppqtttsuy++yy++yyy++++++++++++yxxyyxxxxvqmnpqw+++++++++++++++++++++++++++++++++++++++++++++++++++++++++++++++zyxwwwww+++++++++++++++++++++++++++++++++++++++++++++
(PID.TID 0000.0001) //     31 ++++++++++++++++wv++++++y+yxywxxyywqyywqnotsswwphglqttrnnqssswz++++++++++++++++++++zxxxyyxxyxwuport++++++++++++++++++++++++++++++++++++++++++++++++++++++++++++++++zyyxwwwww++++++++++++++++++++++++++++++++++++++++++++
(PID.TID 0000.0001) //     30 ++++++++++++++++w+++++++++++++wwxzyuxzyumnstsspmfdhmlhgfekosuxz+++++++++++++++++++++xxxyzyyyxwwsptx+++++++++++++++++++++++++++++++++++++++++++++++++++++++++++++zzzzyyxxwxxwwy++++++++++++++++++++++++++++++++++++++++++
(PID.TID 0000.0001) //     29 ++++++++++++++++++wwx+++++++++wwxyzxxyzxrnosspllkeabbaabdhmsvyzz++++++++++++++++++zxwwx++zyyxxwtps++++++++++++++++++++++++++++++++++++++++++++++++++++++++++++++yyzzyxxxxxxxxxz+++++++++++++++++++++++++++++++++++++++++
(PID.TID 0000.0001) //     28 +++++++++++++++xsvwxxxy+zzzzywwwwxyzwxyzypnorqnrwnc--aaabelsvxyx++++++++++++++++++zxxxx+++zyxxwvpr++++++++++++++++++++++++++++++++++++++++++++++++++++++++++++++yyzzyyxxyyyyyyzz++++++++++++++++++++++++++++++++++++++++
(PID.TID 0000.0001) //     27 +++++++++++++++vvwxxxxxxzzzyxwwvvwxyvwxyz+++trrwzwkdabccbenvwxxw++++++++++++++++++++xxyz++zyxxxwst+++++++++++++++++++++++++++++++++++++++++++++++++++++++++++++ywyz+zyxxyzz++zzz++++++++++++++++++++++++++++++++++++++++
(PID.TID 0000.0001) //     26 ++++++++++++++yxxyxwwwwxyyxxyxyyvwwxvwwxz++++yyyyyxvnmmmhhnuwxxy++++++++++++++++++++++++++zyxxxwss++++++++++++++++++++++++++++++++++++++++++++++++++++++++++++ywwx++zyyyxxxz++++z+++z+++++++++++++++++++++++++++++++++++
(PID.TID 0000.0001) //     25 +++++++++++++yyyyyxvuvwwwxwxyxy+vvwxvvwxzzx++++zxxxyxywwqorwxyy+++++++++++++++++++++++x++yyyxxxwss++++++++++++++++++++++++++++++++++++++++++++++++++++++++++++ywvwz+zzzwmkmrwyyzz+++z+++++++++++++++++++++++++++++++++++
(PID.TID 0000.0001) //     24 +++++++++++++yyyyyxwwwwstwwxyxy+wswxwswxyzz+++++xxxxy++xutvx++++++++++++++++++++++++++xx+yyzyxxvst++++++++++++++++++++++++++++++++++++++++++++++++++++++++++++ywxz++zzukgfghkqvxzz++zz++++++++++++++++++++++++++++++++++
(PID.TID 0000.0001) //     23 +++++++++++++zyyyyxxwwxxwwwxxxw++pvw+pvwxz++++++yxxy+++ywwwx+++++++++++++++++++++++oq+++xxzzyyxvsr++++++++++++++++++++++++++++++++++++++++++++++z+++++++++++++trwy+++wher+yumhkrwxy+wxy+++++++++++++++ww++++++++++++++++
(PID.TID 0000.0001) //     22 +++++++++++++zyyyyxyxxyyxwwwxxvr++wy++wy++++++++yxy+++++yxxw+++++++++++++++++++++++vlr+++x++zzywusw+++++++++++++++++++++++++++++++++++++++++++++xy++++++++++++wpqvy+xrht++++++xuuvwwuvww+++++++++++++lhhknw+++++++++++++
(PID.TID 0000.0001) //     21 +++++++++++++yxxyyyyxxyyxwwwxxrnv+++v++++++++++++yy++++++zyxy++++++++++++++++++++++vkkn++++++++xuutw++++++++++++++++++++++++++++++++++++++++++++xxx++++++++++++ywqsuop++++++++++++wu++wuwy++++++++++pkhghkklw+++++++++++
(PID.TID 0000.0001) //     20 +++++++++++++yxxyyyxxwxxxwwxxxpmqvwxqvwx+++++++++y++++++++++++++++++++++++++++++++++khknwt++++++wwwx++++++++++++++++++++++++++++++++++++++++++++xxxxxz++++++++++++wuw+++++++++++++++++++++++++x+++++okhhhhklr+++++++++++
(PID.TID 0000.0001) //     19 ++++++++++++++yyyyyyxwwwxwwxxwrnqwxyqwxy+++++++++++++++++y+++++++++++++++++++++++x++qlkmxx++++++xyy+++++++++++++++++++++++++++++++++++++++++++++yyxxwxz+++++++y++++++++++++++++++++++++++++++++ws++xqkhgghlow+++++++++++
(PID.TID 0000.0001) //     18 +++++++++++++++++++++wwxxxxwwwutwxz+wxz+++++++++++++++++yy++++yy++++++++w++++z++++++++rs++++++++++++++++++++++++++++++++++++++++++++++++++++++++yyyyxxz++++++y++++++++++++++++++++++++++++++++++xv+xqlhgfghkr+++++++++++
(PID.TID 0000.0001) //     17 +++++++++++++++++++++yxxyyxwturuy+++y++++++++++++++++++++yy++ywy++++++++v+++zy++++++++++++++++++++y+++++++++++++++++++++++++++++++++++++++++++++xxyzzyz++++zw+++++++++++++++++++++++++++++++++++xuwupkhgffghkq++++++++++
(PID.TID 0000.0001) //     16 +++++++++++++++++++++zxxxxxvrtqtz+++z+++++++++++++++++++++y++yy++++++z+++wwzz++++++++++++++++++++xxy++++++++++++++++++++++++++++++++++++++++++++xxyyyzz++++yw+++++++++++++++++++++++++++++++++++xsonnkhhggghho++++++++++
(PID.TID 0000.0001) //     15 zzzy++++++++++++++++++yxxxxvsusv+++++++++++++++++++++++++++z++++++++++yw+ytxy++xw++++++++++++++++wwx++++++++++++++++++++++++++++++++++++++++y+++yxxxxyz++++y+++++++++++++++++++++++++++++++++++++uoqsvkkhhhhkp++++++++++
(PID.TID 0000.0001) //     14 yyyxxy++++++++++++++++ywwwwvtttw++++++++++++++++++++++++++++++++++++++++++twxzzxwwwx++++++++++++zxwx+++++++++++++++++++++++++++++++++++++++++yy+xxwwxxxyz++v+++++++++++++++++++++++++++++++++++++woux+xmkhhklv++++++++++
(PID.TID 0000.0001) //     13 yxxxx++++++++++++++++++vvvvutsux+++++++++++++++++++++++++++++++++++++++++yvwxz++zzyy+++++++++++zyxwxx+++++++++++++++++++++++++++++++++++++++++++wvuttvwwvqot++++++++++++++++++++++++++++++++++++++vwy++plkkko+++++++++++
(PID.TID 0000.0001) //     12 xwwwy+++++++++++++++++xsuvuuuuwx++++++++++++++++++++++++++++++++++++++++++wwxzzzzzyy+++++++z+++xwwv++x++++++++++++++++++++++++++++++++++++++++++uqnmlossqoq++++++++++++++++++++++++++++++++++++++++++++qlkklw+++++++++++
(PID.TID 0000.0001) //     11 wwww++++++++++++++++++wtvvvvvvwy+++y+++y++++++++++++++++++++++++++zzzz+++wwwxyzzzzzz+++++zzyzywvtrv+++++++++++++++++++++++++++++++++++++++++++++pmmllnqpqw+++++++++++++++++++++++++++++++++++++++++++++qmmmq++++++++++++
(PID.TID 0000.0001) //     10 wwwx++++++++++++++++++xuvwwvuwy+++xw++xw+++++++++++++++++++++++++zyyyyzzywwwxyzzzzzzzzy++zxxxywvtsx+++++++++++++++++++++++++++++++++++++++++++++onnnoquw++++++++++++++++++++++++++++++++++++++++++++++++ww++++++++++++++
(PID.TID 0000.0001) //      9 wwwy+++++++++++++++++++tuvwvvw++++w+++w+++++++++++++++++++++++++zzyxyyyy+++yzzzzzzzzyxxzzywwxxyxxwx+++++++++++++++++++++++++++++++++++++++++++++rponrwy+++++++++++++++++++++++++++++++++++++++++++++++++++++++++++++++++
(PID.TID 0000.0001) //      8 wwy++++++++++++++++++++tuvvvwy++++x+++x+++++++++++++++++++++++yxxyxxxxyyyx+++zzzzzzyxyz+zzwwxxyxxwwxy+++++++++++++++++++++++++++++++++++++++++++tqposx++++++++++++++++++++++++++++++++++++++++++++++++++++++++++++++++++
(PID.TID 0000.0001) //      7 w++++++++++++++++++++++wvvusuz++++y+++y+++++++++++++++++++++++yxxxxxxxyzxsy++zzzzzzyyzzzzzxxxxwwwvvvxx+++++++++++++++++++++++++++++++++yxxxyy++++wxyy+++++++++++++++++++++++++++++++++++++++++++++++++++++++++++++++++++
(PID.TID 0000.0001) //      6 +++++++++++++++++++++++ywusqw+++++++++++++++++++++++++++++++++yxxxxxxxz+yrw++wzzzzyxyzzzzzxxxwuuwwxwxx++++++++++++++++++++++++++++++++zyyyyxxy++++++++++++++++++++++++++++++++++++++++++++++++++++++++++++++++++++++++++
(PID.TID 0000.0001) //      5 ++++++++++++++++++++++++vtrv++++++++++++++++++++++++++++++++++yxxyyyyyzzwtq++py++zyxzzzzzyxxxwsuwwxxxx+++++++++++++++++++++++++++++++yyxyzzzyy++++++++++++++++++++++++++++++++++++++++++++++++++++++++++++++++++++++++++
(PID.TID 0000.0001) //      4 ++++++++++++++++++++++++yyy+++++++++++++++++++++++++++++++++++yyyzzzzzzyxwsnnny++zyyyyzzywvtuvtvwwxxwx+++y+++y++++++++++++++++++w+++xxyyzzzzzz++++++++++++++++++++++++++++++++++++++++++++++++++++++++++++++++++++++++++
(PID.TID 0000.0001) //      3 +++++++++++++++++++++++++++++++++++++++++++++++++++++++++++++++++++++zzyxxtmnvz+zzzyxxxxwqpnotsuvwyxwy++++y+++y++++++++++++++++wv+++zyzzzzzyz+++++++++++++++++++++++++++++++++++++++++++++++++++++++++++++++++++++++++++
(PID.TID 0000.0001) //      2 ++++++++++++++++++++++++++++++++++++++++++++++++++++++++++++++++++++++zyyyunny+zzzzzxxwwrnmmmqsuvvxxw+++++y+++y++++++++++++++++w++++zyyz+zyyy+++++++++++++++++++++++++++++++++++++++++++++++++++++++++++++++++++++++++++
(PID.TID 0000.0001) //      1 ++++++++++++++++++++++++++++++++++++++++++++++++++++++++++++++++++++++++yxuooy+yyzzyxwwqoomlmqtvutwyy+++++y+++y++++++++++++++++y++++zyyyzzzzz+++++++++++++++++++++++++++++++++++++++++++++++++++++++++++y+++++++++++++++
(PID.TID 0000.0001) //      0 ++++++++++++++++++++++++++++++++++++++++++++++++++++++++++++++++++++++++wvvonrywwzywommlmpppqtttsuy++yy++yy++yy+++++++++++++++z++++zyyxxxyzz++++++++++++++++++++++++++++++++++++++++++++++++++++++++++++y+++++++yyz++++z
(PID.TID 0000.0001) //     -1 ++++++++++++++++++++++++++++++++++++++++++++++++++++++++++++++++++++++++qowqnotsswwphglqttrnnqssswz++++++++++++++++++++++++++++++++zyyxxxyz++++++++++++++++++++++++++++++++++++++++++++++++++++++++++++y+++++++yxyzzyz+y
(PID.TID 0000.0001) // =======================================================
(PID.TID 0000.0001) // END OF FIELD                                          =
(PID.TID 0000.0001) // =======================================================
(PID.TID 0000.0001) 
(PID.TID 0000.0001) // =======================================================
(PID.TID 0000.0001) // Field hFacC at iteration          0
(PID.TID 0000.0001) // CMIN =          2.000000000000000E-01
(PID.TID 0000.0001) // CMAX =          1.000000000000000E+00
(PID.TID 0000.0001) // CINT =          2.962962962962963E-02
(PID.TID 0000.0001) // SYMBOLS (CMIN->CMAX): -abcdefghijklmnopqrstuvwxyz+
(PID.TID 0000.0001) //                  0.0: .
(PID.TID 0000.0001) // RANGE I (Lo:Hi:Step):(    -1:   194:     1)
(PID.TID 0000.0001) // RANGE J (Lo:Hi:Step):(    34:    -1:    -1)
(PID.TID 0000.0001) // RANGE K (Lo:Hi:Step):(   1:   1:   1)
(PID.TID 0000.0001) // =======================================================
(PID.TID 0000.0001) K =   1
(PID.TID 0000.0001) //                I=8       I=18      I=28      I=34      I=44      I=54      I=64      I=70      I=80      I=90      I=96      I=106     I=116     I=126     I=132     I=142     I=152     I=162     I=168     I=178     I=188
(PID.TID 0000.0001) // |--J--|101234567|901234567|901234567|901234123|567890123|567890123|567890123|563456789|123456789|123456789|123456785|789012345|789012345|789012345|789078901|345678901|345678901|345678901|901234567|901234567|901234567|901234
(PID.TID 0000.0001) //     34 ++++++++++++++++++qe--bbap++++...........k+vtutskgc-..........hj-+++++++++++++++++++++hiorojd......k+++++++++++++++++++++++++++++++++++++++++++++++++++++++++++++++mgecdel++++++++++++++++++++++++++++++++++++++++++++++
(PID.TID 0000.0001) //     33 ++++++++++++++++++b...bac++k-............k+pqvspec-...........elk++++++++++++++++++++ihknomid......e+++++++++++++++++++++++++++++++++++++++++++++++++++++++++++++++tnhdc--l+++++++++++++++++++++++++++++++++++++++++++++
(PID.TID 0000.0001) //     32 ++++++++++++++++++ak+k+c-+e...bilg..lg....kaaro-..............k++kl++kkk++++++++++++mgillkije......d++++++++++++++++++++++++++++++++++++++++++++++++++++++++++++++ysnheba--+++++++++++++++++++++++++++++++++++++++++++++
(PID.TID 0000.0001) //     31 ++++++++++++++++-.++++++k+kfkdeipp-.pp-......db..............ar++++++++++++++++++++vkfilljikga.....+++++++++++++++++++++++++++++++++++++++++++++++++++++++++++++++yspmhbadcc++++++++++++++++++++++++++++++++++++++++++++
(PID.TID 0000.0001) //     30 ++++++++++++++++c+++++++++++++-citk.itk......................ju+++++++++++++++++++++hfipsnkmhc-...k+++++++++++++++++++++++++++++++++++++++++++++++++++++++++++++wuvrmlkgdhha-l++++++++++++++++++++++++++++++++++++++++++
(PID.TID 0000.0001) //     29 ++++++++++++++++++baf+++++++++-bfmvkfmvk.....................ouw++++++++++++++++++rkddi++tpoifa...++++++++++++++++++++++++++++++++++++++++++++++++++++++++++++++qoutnjjgfijgfhr+++++++++++++++++++++++++++++++++++++++++
(PID.TID 0000.0001) //     28 +++++++++++++++e..-fhjm+uuvtl---bfnwbfnwl.......-............kki++++++++++++++++++rjeej+++uoigc...++++++++++++++++++++++++++++++++++++++++++++++++++++++++++++++lovwolkjnpooqqrv++++++++++++++++++++++++++++++++++++++++
(PID.TID 0000.0001) //     27 +++++++++++++++..egiifekstspjd-..beo.beot+++...bta..........bjhd++++++++++++++++++++kint++xpige-..+++++++++++++++++++++++++++++++++++++++++++++++++++++++++++++ldmwytniiouwxxxvw++++++++++++++++++++++++++++++++++++++++
(PID.TID 0000.0001) //     26 ++++++++++++++kfimidbcdgkmiknill.-bj.-bjw++++llpmpe.........bfgl++++++++++++++++++++++++++vpjiga..++++++++++++++++++++++++++++++++++++++++++++++++++++++++++++m--iyzvnmnffiszxxxv+++v+++++++++++++++++++++++++++++++++++
(PID.TID 0000.0001) //     25 +++++++++++++qmmonf...b-agcgnil+..bj..bjutg++++vhhknhkc-...-ill+++++++++++++++++++++++j++qopkih-..++++++++++++++++++++++++++++++++++++++++++++++++++++++++++++l-.euzwtr-....dlpus+++s+++++++++++++++++++++++++++++++++++
(PID.TID 0000.0001) //     24 ++++++++++++xplmnng--a-..achmil+-.-i-.-inus+++++ighho++e...h++++++++++++++++++++++++++jh+pqslih...++++++++++++++++++++++++++++++++++++++++++++++++++++++++++++lbkrxxxu.........isw++sw++++++++++++++++++++++++++++++++++
(PID.TID 0000.0001) //     23 ++++++++++++ysnmmlhf-bifdcbgijc++..c+..cht++++++lgil+++ob-bg+++++++++++++++++++++++..+++jjrwpli...++++++++++++++++++++++++++++++++++++++++++++++v+++++++++++++..-qyyxc...+l.....afm+afm+++++++++++++++-c++++++++++++++++
(PID.TID 0000.0001) //     22 ++++++++++++ysonmmjkfhmnia-cfi..++al++al++++++++ofk+++++nigc+++++++++++++++++++++++...+++h++rrna..a+++++++++++++++++++++++++++++++++++++++++++++km++++++++++++e...nxi...++++++e...-d..-d+++++++++++++.....-+++++++++++++
(PID.TID 0000.0001) //     21 ++++++++++++yojkmnmlhjmmha-cfe...+++.++++++++++++ll++++++spjl++++++++++++++++++++++....++++++++j...a++++++++++++++++++++++++++++++++++++++++++++fgi++++++++++++l-.....++++++++++++e.++e.-l++++++++++........-+++++++++++
(PID.TID 0000.0001) //     20 +++++++++++++lfhlnljecfiidbgie....af..af+++++++++l+++++++++y++++++++++++++++++++++++....-.++++++-cej++++++++++++++++++++++++++++++++++++++++++++iihhjr++++++++++++-.c+++++++++++++++++++++++++j+++++.........+++++++++++
(PID.TID 0000.0001) //     19 ++++++++++++++lkoqpqi--bfdcegd...-fm.-fm+++++++++++++++++q+++++++++++++++++++++++j++....jj++++++kmp+++++++++++++++++++++++++++++++++++++++++++++llkidfsz++++++l++++++++++++++++++++++++++++++++b.++j........a+++++++++++
(PID.TID 0000.0001) //     18 +++++++++++++++++++++bbehgeb--..-kr+-kr+++++++++++++++++ll++++ll++++++++-++++t++++++++..++++++++++++++++++++++++++++++++++++++++++++++++++++++++llnoihr++++++l++++++++++++++++++++++++++++++++++j.+j.........+++++++++++
(PID.TID 0000.0001) //     17 +++++++++++++++++++++lghlkh-....lx++lx+++++++++++++++++++lp++lal++++++++.+++ro++++++++++++++++++++o+++++++++++++++++++++++++++++++++++++++++++++jkorrqv++++tc+++++++++++++++++++++++++++++++++++j.a...........++++++++++
(PID.TID 0000.0001) //     16 yy+++++++++++++++++++rhhkkg.....r+++r+++++++++++++++++++++l++pl++++++r+++abqw++++++++++++++++++++fim++++++++++++++++++++++++++++++++++++++++++++iimoorwz+++n-+++++++++++++++++++++++++++++++++++j.............++++++++++
(PID.TID 0000.0001) //     15 sstm++++++++++++++++++lfghe.....+++++++++++++++++++++++++++s++++++++++l-+k.eq++fc++++++++++++++++dbj++++++++++++++++++++++++++++++++++++++++o+++kjijkntx+++l+++++++++++++++++++++++++++++++++++++.............++++++++++
(PID.TID 0000.0001) //     14 pnnghl++++++++++++++++l--aa....a++++++++++++++++++++++++++++++++++++++++++.-kxwjccbj++++++++++++ufah+++++++++++++++++++++++++++++++++++++++++kl+geddegins++.+++++++++++++++++++++++++++++++++++++a..i+j.......++++++++++
(PID.TID 0000.0001) //     13 mhhei++++++++++++++++++........e+++++++++++++++++++++++++++++++++++++++++k.-guy+vsll+++++++++++uqe-jj+++++++++++++++++++++++++++++++++++++++++++a.....--....++++++++++++++++++++++++++++++++++++++.cn++......+++++++++++
(PID.TID 0000.0001) //     12 hedcn+++++++++++++++++g.......-g+++++++++++++++++++++++++++++++++++++x++++bbgsvwwuqp+++++++r+++gb-.++k++++++++++++++++++++++++++++++++++++++++++...........++++++++++++++++++++++++++++++++++++++++++++.....a+++++++++++
(PID.TID 0000.0001) //     11 bbcd++++++++++++++++++c.......al+++l+++l++++++++++++++++++++++++++sttt+++cabfqstuutu+++++wsqtna....+++++++++++++++++++++++++++++++++++++++++++++.........b+++++++++++++++++++++++++++++++++++++++++++++.....++++++++++++
(PID.TID 0000.0001) //     10 aa-e++++++++++++++++++e..--..-k+++gd++gd+++++++++++++++++++++++++vkknpswk-cafqsrrttuusqxytiijkb...j+++++++++++++++++++++++++++++++++++++++++++++.......-++++++++++++++++++++++++++++++++++++++++++++++++-a++++++++++++++
(PID.TID 0000.0001) //      9 d--l+++++++++++++++++++...-..c++++a+++a+++++++++++++++++++++++++urlkkmoq+++prtsrsuttmghtxnabejljh-j+++++++++++++++++++++++++++++++++++++++++++++.....-l+++++++++++++++++++++++++++++++++++++++++++++++++++++++++++++++++
(PID.TID 0000.0001) //      8 c-l++++++++++++++++++++.....-o++++f+++f+++++++++++++++++++++++ohilkihhmpke++yvsstutqjnsxxrddfikie--ko+++++++++++++++++++++++++++++++++++++++++++.....f++++++++++++++++++++++++++++++++++++++++++++++++++++++++++++++++++
(PID.TID 0000.0001) //      7 c++++++++++++++++++++++a.....s++++l+++l+++++++++++++++++++++++nggiigfhouf.k++rvtstsnmuxwvshghgc--...ek+++++++++++++++++++++++++++++++++piffkk++++dekk+++++++++++++++++++++++++++++++++++++++++++++++++++++++++++++++++++
(PID.TID 0000.0001) //      6 +++++++++++++++++++++++l-...a+++++++++++++++++++++++++++++++++nhhiiggjtyk.-++-swwumhowxwwtiihb..-bfafk++++++++++++++++++++++++++++++++sklnlifm++++++++++++++++++++++++++++++++++++++++++++++++++++++++++++++++++++++++++
(PID.TID 0000.0001) //      5 ++++++++++++++++++++++++....++++++++++++++++++++++++++++++++++oijlnmnqvxd..++.l+zuliquvxwqkhe-..-bjgge+++++++++++++++++++++++++++++++nmjottuqp++++++++++++++++++++++++++++++++++++++++++++++++++++++++++++++++++++++++++
(PID.TID 0000.0001) //      4 ++++++++++++++++++++++++kkk+++++++++++++++++++++++++++++++++++qmosuutttqeb....m++toooorul-......--jgck+++k+++k++++++++++++++++++-+++jglpsuuvvu++++++++++++++++++++++++++++++++++++++++++++++++++++++++++++++++++++++++++
(PID.TID 0000.0001) //      3 +++++++++++++++++++++++++++++++++++++++++++++++++++++++++++++++++++++vrnii....tyvtrqjhhh-........-kjak++++k+++k++++++++++++++++-.++xtprtvwtpr+++++++++++++++++++++++++++++++++++++++++++++++++++++++++++++++++++++++++++
(PID.TID 0000.0001) //      2 ++++++++++++++++++++++++++++++++++++++++++++++++++++++++++++++++++++++sppl...k+vtutskgc-..........hj-+++++k+++k++++++++++++++++-++++wqpuyxqnp+++++++++++++++++++++++++++++++++++++++++++++++++++++++++++++++++++++++++++
(PID.TID 0000.0001) //      1 ++++++++++++++++++++++++++++++++++++++++++++++++++++++++++++++++++++++++pg...k+pqvspec-...........elk+++++k+++k++++++++++++++++l++++somotvtrs+++++++++++++++++++++++++++++++++++++++++++++++++++++++++++l+++++++++++++++
(PID.TID 0000.0001) //      0 ++++++++++++++++++++++++++++++++++++++++++++++++++++++++++++++++++++++++-.....kaaro-..............k++kl++kk++kk+++++++++++++++r+++xtpmhhjqtv++++++++++++++++++++++++++++++++++++++++++++++++++++++++++++k+++++++mpu++++s
(PID.TID 0000.0001) //     -1 ++++++++++++++++++++++++++++++++++++++++++++++++++++++++++++++++++++++++..-......db..............ar++++++++++++++++++++++++++++++++tnkhfgnt++++++++++++++++++++++++++++++++++++++++++++++++++++++++++++o+++++++kfqvrps+p
(PID.TID 0000.0001) // =======================================================
(PID.TID 0000.0001) // END OF FIELD                                          =
(PID.TID 0000.0001) // =======================================================
(PID.TID 0000.0001) 
(PID.TID 0000.0001) // =======================================================
(PID.TID 0000.0001) // Field hFacW at iteration          0
(PID.TID 0000.0001) // CMIN =          2.000000000000000E-01
(PID.TID 0000.0001) // CMAX =          1.000000000000000E+00
(PID.TID 0000.0001) // CINT =          2.962962962962963E-02
(PID.TID 0000.0001) // SYMBOLS (CMIN->CMAX): -abcdefghijklmnopqrstuvwxyz+
(PID.TID 0000.0001) //                  0.0: .
(PID.TID 0000.0001) // RANGE I (Lo:Hi:Step):(    -1:   194:     1)
(PID.TID 0000.0001) // RANGE J (Lo:Hi:Step):(    34:    -1:    -1)
(PID.TID 0000.0001) // RANGE K (Lo:Hi:Step):(   1:   1:   1)
(PID.TID 0000.0001) // =======================================================
(PID.TID 0000.0001) K =   1
(PID.TID 0000.0001) //                I=8       I=18      I=28      I=34      I=44      I=54      I=64      I=70      I=80      I=90      I=96      I=106     I=116     I=126     I=132     I=142     I=152     I=162     I=168     I=178     I=188
(PID.TID 0000.0001) // |--J--|101234567|901234567|901234567|901234123|567890123|567890123|567890123|563456789|123456789|123456789|123456785|789012345|789012345|789012345|789078901|345678901|345678901|345678901|901234567|901234567|901234567|901234
(PID.TID 0000.0001) //     34 ++++++++++++++++++qe---baap+++............kvtttskgc-...........h--++++k.++++++++++++++hhioojd.......k++++++.+++++++++++++++++++++++++++++++++++.+++++++++++++++++++mgeccdel++++++++.+++++++++++++++++++++++++++++++++++.
(PID.TID 0000.0001) //     33 ++++++++++++++++++b....aac+k-.............kppqspec-............ekk++++k++++++++++++++ihhknmid.......e++++++++++++++++++++++++++++++++++++++++++++++++++++++++++++++tnhdc---l++++++++++++++++++++++++++++++++++++++++++++
(PID.TID 0000.0001) //     32 ++++++++++++++++++aakkkc--e....big..ig.....aaao-...............k+kkl+kkk++++++++++++mggilkiie.......d+++++++++++++++++++++++++++++++++++++++++++++++++++++++++++++ysnheba---++++++++++++++++++++++++++++++++++++++++++++
(PID.TID 0000.0001) //     31 ++++++++++++++++-..+++++kkkffddeip-.ip-.......b...............ar+++++++++++++++++++vkffiljiiga......++++++++++++++++++++++++++++++++++++++++++++++++++++++++++++++yspmhbaaccc+++++++++++++++++++++++++++++++++++++++++++
(PID.TID 0000.0001) //     30 ++++++++++++++++cc++++++++++++--cik.cik.......................ju++++++++++++++++++++hffipnkkhc-....k++++++++++++++++++++++++++++++++++++++++++++++++++++++++++++wuurmlkgddha--l+++++++++++++++++++++++++++++++++++++++++
(PID.TID 0000.0001) //     29 ++++++++++++++++++baaf++++++++--bfmkbfmk......................ouw+++++++++++++++++rkdddi+tpoifa....+++++++++++++++++++++++++++++++++++++++++++++++++++++++++++++qootnjjgffigffhr++++++++++++++++++++++++++++++++++++++++
(PID.TID 0000.0001) //     28 +++++++++++++++e...-fhjmuuutl----bfn-bfnl.....................kii+++++++++++++++++rjeeej++uoigc....+++++++++++++++++++++++++++++++++++++++++++++++++++++++++++++llovolkjjnoooqqrv+++v+++++++++++++++++++++++++++++++++++
(PID.TID 0000.0001) //     27 +++++++++++++++...egifeeksspjd-...be..beot++....ba...........bhdd+++++++++++++++++++kiint+xpige-...++++++++++++++++++++++++++++++++++++++++++++++++++++++++++++lddmwtniiiouwxxvvw+++w+++++++++++++++++++++++++++++++++++
(PID.TID 0000.0001) //     26 ++++++++++++++kffiidbbcdgkiikiil..-b..-bjw+++lllmme..........bfgl+++++++++++++++++++++++++vpjiga...+++++++++++++++++++++++++++++++++++++++++++++++++++++++++++m---iyvnmmfffisxxxvv++vv++++++++++++++++++++++++++++++++++
(PID.TID 0000.0001) //     25 +++++++++++++qmmmnf....--accgiil...b...bjtgg+++vhhhkhhc-....-ill++++++++++++++++++++++jj+qookih-...+++++++++++++++++++++++++++++++++++++++++++++++++++++++++++l-..euwtr-.....dlpss++ss++++++++++++++++++++++++++++++++++
(PID.TID 0000.0001) //     24 ++++++++++++xpllmng----...achiil-..--..-inss++++igghho+e....h+++++++++++++++++++++++++jhhppqlih....+++++++++++++++++++++++++++++++++++++++++++++++++++++++++++lbbkrxxu..........isw+isw+++++++++++++++++++++++++++++++++
(PID.TID 0000.0001) //     23 ++++++++++++ysnmmlhf--bfdcbbgicc+...+...cht+++++lggil++ob--bg++++++++++++++++++++++...++jjjrpli....+++++++++++++++++++++++++++++++++++++++++++++vv++++++++++++...-qyxc....l......afm.afm++++++++++++++--c+++++++++++++++
(PID.TID 0000.0001) //     22 ++++++++++++ysonmmjjffhmia--cf...+aa.+aal+++++++offk++++nigcc++++++++++++++++++++++....++hh+rrna...a++++++++++++++++++++++++++++++++++++++++++++hkm+++++++++++e....ni....+++++e....-...-d++++++++++++......-++++++++++++
(PID.TID 0000.0001) //     21 ++++++++++++yojjkmmlhhjmha--ce....++..+++++++++++lll+++++spjjl+++++++++++++++++++++.....+++++++j....a+++++++++++++++++++++++++++++++++++++++++++ffgi+++++++++++l-......+++++++++++e.++e..-l+++++++++.........-++++++++++
(PID.TID 0000.0001) //     20 +++++++++++++lffhlljeccfidbbge.....a...af++++++++ll++++++++yy+++++++++++++++++++++++.......+++++--cej+++++++++++++++++++++++++++++++++++++++++++iihhhjr+++++++++++-..c++++++++++++++++++++++++jj++++..........++++++++++
(PID.TID 0000.0001) //     19 ++++++++++++++lkkoppi---bdcced....-f..-fm++++++++++++++++qq++++++++++++++++++++++jj+.....jj+++++kkmp++++++++++++++++++++++++++++++++++++++++++++llkiddfsz+++++ll+++++++++++++++++++++++++++++++b..+j.........a++++++++++
(PID.TID 0000.0001) //     18 w++++++++++++++++++++bbbegeb--...-kr.-kr++++++++++++++++lll+++lll+++++++--+++tt+++++++...+++++++++++++++++++++++++++++++++++++++++++++++++++++++lllnihhr+++++ll+++++++++++++++++++++++++++++++++j..j..........++++++++++
(PID.TID 0000.0001) //     17 u++++++++++++++++++++lgghkh-.....lx+.lx++++++++++++++++++llp+laal+++++++..++roo+++++++++++++++++++oo++++++++++++++++++++++++++++++++++++++++++++jjkorqqv+++tcc++++++++++++++++++++++++++++++++++j..............+++++++++
(PID.TID 0000.0001) //     16 vyy++++++++++++++++++rhhhkg......r++.r++++++++++++++++++++ll+pll+++++rr++aabqw+++++++++++++++++++ffim+++++++++++++++++++++++++++++++++++++++++++iiimoorwz++n--++++++++++++++++++++++++++++++++++j..............+++++++++
(PID.TID 0000.0001) //     15 rssmm+++++++++++++++++lffge......+++.++++++++++++++++++++++ss+++++++++l-+k..eq+fcc+++++++++++++++dbbj+++++++++++++++++++++++++++++++++++++++oo++kjiijkntx++ll++++++++++++++++++++++++++++++++++++..............+++++++++
(PID.TID 0000.0001) //     14 mnngghl+++++++++++++++l---a.....a+++a+++++++++++++++++++++++++++++++++++++..-kwjccbbj+++++++++++ufaah++++++++++++++++++++++++++++++++++++++++kklgedddegins+..++++++++++++++++++++++++++++++++++++a...ij........+++++++++
(PID.TID 0000.0001) //     13 lhheei+++++++++++++++++.........e+++e++++++++++++++++++++++++++++++++++++k..-guyvslll++++++++++uqe--jj++++++++++++++++++++++++++++++++++++++++++a......-.....+++++++++++++++++++++++++++++++++++++..cn+.......++++++++++
(PID.TID 0000.0001) //     12 hedccn++++++++++++++++g........-g+++g++++++++++++++++++++++++++++++++xx+++bbbgsvwuqpp++++++rr++gb-..+kk+++++++++++++++++++++++++++++++++++++++++............+++++++++++++++++++++++++++++++++++++++++++......a++++++++++
(PID.TID 0000.0001) //     11 bbbcd+++++++++++++++++c........al++ll++ll+++++++++++++++++++++++++ssttt++caabfqstuttu++++wsqqna.....++++++++++++++++++++++++++++++++++++++++++++..........b++++++++++++++++++++++++++++++++++++++++++++......+++++++++++
(PID.TID 0000.0001) //     10 aa--e+++++++++++++++++e...-...-k++gd++gdd++++++++++++++++++++++++vkkknpsk--aafqrrrttusqqxtiiijb....j++++++++++++++++++++++++++++++++++++++++++++........-+++++++++++++++++++++++++++++++++++++++++++++++--a+++++++++++++
(PID.TID 0000.0001) //      9 d---l++++++++++++++++++.......c+++aa++aa++++++++++++++++++++++++urlkkkmo+++pprsrrsttmgghtnaabejjh--j++++++++++++++++++++++++++++++++++++++++++++......-l++++++++++++++++++++++++++++++++++++++++++++++++++++++++++++++++
(PID.TID 0000.0001) //      8 c--l+++++++++++++++++++......-o+++ff++ff++++++++++++++++++++++ohhikihhhmkee+yvsssttqjjnsxrdddfiie---ko++++++++++++++++++++++++++++++++++++++++++......f+++++++++++++++++++++++++++++++++++++++++++++++++++++++++++++++++
(PID.TID 0000.0001) //      7 ac+++++++++++++++++++++a......s+++ll++ll++++++++++++++++++++++ngggigffhof..k+rrtsssnmmuwvshgggc--....ek++++++++++++++++++++++++++++++++pifffkk+++ddekk++++++++++++++++++++++++++++++++++++++++++++++++++++++++++++++++++
(PID.TID 0000.0001) //      6 -++++++++++++++++++++++l-....a++++++++++++++++++++++++++++++++nhhhigggjtk..-+--swumhhowwwtiihb...-baafk+++++++++++++++++++++++++++++++skklliffm+++++++++++++++++++++++++++++++++++++++++++++++++++++++++++++++++++++++++
(PID.TID 0000.0001) //      5 l+++++++++++++++++++++++.....+++++++++++++++++++++++++++++++++oiijlmmnqvd...+..lzuliiquvwqkhe-...-bggee++++++++++++++++++++++++++++++nmjjottqpp+++++++++++++++++++++++++++++++++++++++++++++++++++++++++++++++++++++++++
(PID.TID 0000.0001) //      4 ++++++++++++++++++++++++kkkk++++++++++++++++++++++++++++++++++qmmosutttq-b.....m+tooooorl-.......--gcck++kk++kk+++++++++++++++++--++jgglpsuuvuu+++++++++++++++++++++++++++++++++++++++++++++++++++++++++++++++++++++++++
(PID.TID 0000.0001) //      3 +++++++++++++++++++++++++++++++++++++++++++++++++++++++++++++++++++++vrnci.....tvtrqjhhh-.........-jaak+++kk++kk+++++++++++++++-..+xtpprtvtppr++++++++++++++++++++++++++++++++++++++++++++++++++++++++++++++++++++++++++
(PID.TID 0000.0001) //      2 ++++++++++++++++++++++++++++++++++++++++++++++++++++++++++++++++++++++spil....kvtttskgc-...........h--++++kk++kk+++++++++++++++--+++wqppuxqnnp++++++++++++++++++++++++++++++++++++++++++++++++++++++++++++++++++++++++++
(PID.TID 0000.0001) //      1 ++++++++++++++++++++++++++++++++++++++++++++++++++++++++++++++++++++++++pg....kppqspec-............ekk++++kk++kk+++++++++++++++ll+++sommottrrs++++++++++++++++++++++++++++++++++++++++++++++++++++++++++ll++++++++++++++
(PID.TID 0000.0001) //      0 ++++++++++++++++++++++++++++++++++++++++++++++++++++++++++++++++++++++++-......aaao-...............k+kkl+kkk+kkk++++++++++++++rr++xtpmhhhjqtv+++++++++++++++++++++++++++++++++++++++++++++++++++++++++++kk++++++mmpu+++s
(PID.TID 0000.0001) //     -1 +++++++++++++++++++++++++++++++++++++++++++++++++++++++++++++++++++++++p..-.......b...............ar+++++++++++++++++++++++++++++++tnkhffgnt+++++++++++++++++++++++++++++++++++++++++++++++++++++++++++oo++++++kffqrpps+
(PID.TID 0000.0001) // =======================================================
(PID.TID 0000.0001) // END OF FIELD                                          =
(PID.TID 0000.0001) // =======================================================
(PID.TID 0000.0001) 
(PID.TID 0000.0001) // =======================================================
(PID.TID 0000.0001) // Field hFacS at iteration          0
(PID.TID 0000.0001) // CMIN =          2.000000000000000E-01
(PID.TID 0000.0001) // CMAX =          1.000000000000000E+00
(PID.TID 0000.0001) // CINT =          2.962962962962963E-02
(PID.TID 0000.0001) // SYMBOLS (CMIN->CMAX): -abcdefghijklmnopqrstuvwxyz+
(PID.TID 0000.0001) //                  0.0: .
(PID.TID 0000.0001) // RANGE I (Lo:Hi:Step):(    -1:   194:     1)
(PID.TID 0000.0001) // RANGE J (Lo:Hi:Step):(    34:    -1:    -1)
(PID.TID 0000.0001) // RANGE K (Lo:Hi:Step):(   1:   1:   1)
(PID.TID 0000.0001) // =======================================================
(PID.TID 0000.0001) K =   1
(PID.TID 0000.0001) //                I=8       I=18      I=28      I=34      I=44      I=54      I=64      I=70      I=80      I=90      I=96      I=106     I=116     I=126     I=132     I=142     I=152     I=162     I=168     I=178     I=188
(PID.TID 0000.0001) // |--J--|101234567|901234567|901234567|901234123|567890123|567890123|567890123|563456789|123456789|123456789|123456785|789012345|789012345|789012345|789078901|345678901|345678901|345678901|901234567|901234567|901234567|901234
(PID.TID 0000.0001) //     34 ++++++++++++++++++b...baap+k-........g...k+pquspec-...........ej-+++++k.+++++++++++++ihinomid......e+++++++.+++++++++++++++++++++++++++++++++++.+++++++++++++++++++mgecc--l++++++++.+++++++++++++++++++++++++++++++++++.
(PID.TID 0000.0001) //     33 ++++++++++++++++++a...ba-+e...............kaaro-..............elkkl++kkk++++++++++++mghklkiid......d++++++++++++++++++++++++++++++++++++++++++++++++++++++++++++++ysnhdb---+++++++++++++++++++++++++++++++++++++++++++++
(PID.TID 0000.0001) //     32 ++++++++++++++++-.ak+k+c-+e...bilg..lg.......db...............k++kl++kkk+++++++++++vkfilljije......d++++++++++++++++++++++++++++++++++++++++++++++++++++++++++++++ysnheba--c++++++++++++++++++++++++++++++++++++++++++++
(PID.TID 0000.0001) //     31 ++++++++++++++++-.++++++k+kfkd-cip-.ip-......................ar++++++++++++++++++++vhfilljikga.....+++++++++++++++++++++++++++++++++++++++++++++++++++++++++++++wuvrmlhbadca-l++++++++++++++++++++++++++++++++++++++++++
(PID.TID 0000.0001) //     30 ++++++++++++++++c+baf+++++++++-bfmk.fmk......................juw++++++++++++++++++rkddipsnkmhc-...k+++++++++++++++++++++++++++++++++++++++++++++++++++++++++++++qourmjjgdhha-hr+++++++++++++++++++++++++++++++++++++++++
(PID.TID 0000.0001) //     29 +++++++++++++++e..-afjm+uuvtl---bfnkbfnk.....................kki++++++++++++++++++rjddi++tpoifa...++++++++++++++++++++++++++++++++++++++++++++++++++++++++++++++loutnjjgfijgfhrv++++++++++++++++++++++++++++++++++++++++
(PID.TID 0000.0001) //     28 +++++++++++++++...-fhfekstspj--..beo.beol.......-............jhd++++++++++++++++++rjeejt++uoigc...+++++++++++++++++++++++++++++++++++++++++++++++++++++++++++++ldmvwoliinpooqqrv++++++++++++++++++++++++++++++++++++++++
(PID.TID 0000.0001) //     27 ++++++++++++++k..egdbcdgkmikjd-..-bj.-bjt+++...bma..........bfgd++++++++++++++++++++kint++vpige-..++++++++++++++++++++++++++++++++++++++++++++++++++++++++++++m--iwytniiffisxxvwv+++v+++++++++++++++++++++++++++++++++++
(PID.TID 0000.0001) //     26 +++++++++++++qkfimf...b-agcgnill..bj..bjutg++llphhe.........bfgl++++++++++++++++++++++j++qopjig-..++++++++++++++++++++++++++++++++++++++++++++++++++++++++++++l-.euzvnm-....dlpus+++s+++++++++++++++++++++++++++++++++++
(PID.TID 0000.0001) //     25 ++++++++++++xplmnnf...-..acgmil+..-i..-intg++++vhghhhkc-...-ill+++++++++++++++++++++++jh+popkih...++++++++++++++++++++++++++++++++++++++++++++++++++++++++++++l-.euxwt.........isw++sw++++++++++++++++++++++++++++++++++
(PID.TID 0000.0001) //     24 ++++++++++++xplmmlg--a-..abgiic+-..c-..chts+++++ighho++e...g+++++++++++++++++++++++..+jhjjqslih...++++++++++++++++++++++++++++++++++++++++++++++v+++++++++++++..-qxxxc..........afm+afm+++++++++++++++-c++++++++++++++++
(PID.TID 0000.0001) //     23 ++++++++++++ysnmmlhf-bifda-cfi..+..c+..cht++++++lfil+++ob-bc+++++++++++++++++++++++...++jhrwpli...a+++++++++++++++++++++++++++++++++++++++++++++km++++++++++++....nxi....+l.......-d..-d+++++++++++++.....-+++++++++++++
(PID.TID 0000.0001) //     22 ++++++++++++yojkmmjkfhmmha-cfe...+al.+al++++++++ofk+++++nigcl++++++++++++++++++++++....++h++rrna...a++++++++++++++++++++++++++++++++++++++++++++fgi+++++++++++e.........++++++e...-...-.-l++++++++++........-+++++++++++
(PID.TID 0000.0001) //     21 ++++++++++++ylfhlnljecfiha-cfe....af..af+++++++++ll++++++spjl++++++++++++++++++++++.....-.+++++j...a++++++++++++++++++++++++++++++++++++++++++++fghhjr+++++++++l-.....++++++++++++e.++e.-l++++j+++++.........+++++++++++
(PID.TID 0000.0001) //     20 +++++++++++++lfhlnlje--bfdbegd....af..af+++++++++l+++++++q+y+++++++++++++++++++++j++....-.++++++-cej++++++++++++++++++++++++++++++++++++++++++++iihhdfsz++++++l+++-.c+++++++++++++++++++++++++jb.++j.........+++++++++++
(PID.TID 0000.0001) //     19 ++++++++++++++lkoqpqi--bfdcb--...-fm.-fm++++++++++++++++ll++++ll++++++++-++++t+++j++....jj++++++kmp+++++++++++++++++++++++++++++++++++++++++++++llkidfrz+++++ll++++++++++++++++++++++++++++++++b..+j.........+++++++++++
(PID.TID 0000.0001) //     18 +++++++++++++++++++++bbehge-....-kr+-kr+++++++++++++++++llp++lal++++++++.+++ro++++++++..++++++++++o+++++++++++++++++++++++++++++++++++++++++++++jknoihr++++tcl++++++++++++++++++++++++++++++++++j.a...........++++++++++
(PID.TID 0000.0001) //     17 yy+++++++++++++++++++lghkkg.....lx++lx+++++++++++++++++++ll++lal+++++r++.abqro+++++++++++++++++++fim++++++++++++++++++++++++++++++++++++++++++++iimooqvz+++n-+++++++++++++++++++++++++++++++++++j.............++++++++++
(PID.TID 0000.0001) //     16 sstm+++++++++++++++++rhfghe.....r+++r+++++++++++++++++++++ls+pl++++++rl-+a.eq++fc++++++++++++++++dbj++++++++++++++++++++++++++++++++++++++++o+++iiijkntx+++l-+++++++++++++++++++++++++++++++++++j.............++++++++++
(PID.TID 0000.0001) //     15 pnnghl++++++++++++++++l--aa.....+++++++++++++++++++++++++++s++++++++++l-+k.-kxwfccbj++++++++++++udah++++++++++++++++++++++++++++++++++++++++okl+geddegins++.+++++++++++++++++++++++++++++++++++++.............++++++++++
(PID.TID 0000.0001) //     14 mhhehl++++++++++++++++l........a+++++++++++++++++++++++++++++++++++++++++k.-guwjccbj+++++++++++uqe-hj++++++++++++++++++++++++++++++++++++++++kl+a.....--....+++++++++++++++++++++++++++++++++++++a..i+j.......++++++++++
(PID.TID 0000.0001) //     13 hedci+++++++++++++++++g........e+++++++++++++++++++++++++++++++++++++x+++k.-gsvwvsll+++++++r+++gb-.jjk++++++++++++++++++++++++++++++++++++++++++............++++++++++++++++++++++++++++++++++++++.cn++......+++++++++++
(PID.TID 0000.0001) //     12 bbccn+++++++++++++++++c.......-g+++l+++l++++++++++++++++++++++++++sttt+++cabfqstuuqp+++++wsqtna....++k++++++++++++++++++++++++++++++++++++++++++...........++++++++++++++++++++++++++++++++++++++++++++.....a+++++++++++
(PID.TID 0000.0001) //     11 aa-d++++++++++++++++++c.......al++gd++gd+++++++++++++++++++++++++vkknpswk-aafqsrrttuusqxytiijka....+++++++++++++++++++++++++++++++++++++++++++++.........b+++++++++++++++++++++++++++++++++++++++++++++.....++++++++++++
(PID.TID 0000.0001) //     10 a--e++++++++++++++++++e...-..-k+++ad++ad++++++++++++++++++++++++urkkkmoqk-cafqsrrtttmghtxnabejb...j+++++++++++++++++++++++++++++++++++++++++++++.......-++++++++++++++++++++++++++++++++++++++++++++++++-a++++++++++++++
(PID.TID 0000.0001) //      9 c--l+++++++++++++++++++......c++++a+++a+++++++++++++++++++++++ohilkihhmpke+prtsrsutqjghtxnabeikie--ko+++++++++++++++++++++++++++++++++++++++++++.....-l+++++++++++++++++++++++++++++++++++++++++++++++++++++++++++++++++
(PID.TID 0000.0001) //      8 c-l++++++++++++++++++++......o++++f+++f+++++++++++++++++++++++nggiigfhmpf.k+yrssstsnjnswvrddfgc--...ek+++++++++++++++++++++++++++++++++piffkk+++.....f++++++++++++++++++++++++++++++++++++++++++++++++++++++++++++++++++
(PID.TID 0000.0001) //      7 c++++++++++++++++++++++a.....s++++l+++l+++++++++++++++++++++++nggiigfhouf.-++-ststmhmuxwvshghb..-...ek++++++++++++++++++++++++++++++++skiffifm+++dekk+++++++++++++++++++++++++++++++++++++++++++++++++++++++++++++++++++
(PID.TID 0000.0001) //      6 +++++++++++++++++++++++l....a+++++++++++++++++++++++++++++++++nhhiiggjtxd..++.lwwulhouvwwqihe-..-bfafe+++++++++++++++++++++++++++++++nmjlnlifm++++++++++++++++++++++++++++++++++++++++++++++++++++++++++++++++++++++++++
(PID.TID 0000.0001) //      5 ++++++++++++++++++++++++....++++++++++++++++++++++++++++++++++oijlnmnqtqd.....l+ztlioorul-......--jgce+++k+++k++++++++++++++++++-+++jgljottuqp++++++++++++++++++++++++++++++++++++++++++++++++++++++++++++++++++++++++++
(PID.TID 0000.0001) //      4 ++++++++++++++++++++++++kkk+++++++++++++++++++++++++++++++++++qmosuuttrneb....myvtoojhhh-........-jgak+++kk++kk++++++++++++++++-.++xjglpsutpru++++++++++++++++++++++++++++++++++++++++++++++++++++++++++++++++++++++++++
(PID.TID 0000.0001) //      3 +++++++++++++++++++++++++++++++++++++++++++++++++++++++++++++++++++++vrnii....tvttrqjgc-..........hj-k++++k+++k++++++++++++++++-.++xtpptvwqnp+++++++++++++++++++++++++++++++++++++++++++++++++++++++++++++++++++++++++++
(PID.TID 0000.0001) //      2 ++++++++++++++++++++++++++++++++++++++++++++++++++++++++++++++++++++++sppg...k+pquspec-...........ej-+++++k+++k++++++++++++++++-++++somotvqnp+++++++++++++++++++++++++++++++++++++++++++++++++++++++++++l+++++++++++++++
(PID.TID 0000.0001) //      1 ++++++++++++++++++++++++++++++++++++++++++++++++++++++++++++++++++++++++-.....kaaro-..............elkkl++kk++kk+++++++++++++++rl++xtpmhhjqtrs+++++++++++++++++++++++++++++++++++++++++++++++++++++++++++k+++++++mpu++++s
(PID.TID 0000.0001) //      0 +++++++++++++++++++++++++++++++++++++++++++++++++++++++++++++++++++++++p.g.......db...............k++kl++kkk++k+++++++++++++++r+++xtnkhfgntv+++++++++++++++++++++++++++++++++++++++++++++++++++++++++++ok++++++kfpurps++
(PID.TID 0000.0001) //     -1 +++++++++++++++++++++++++++++++++++++++++++++++++++++++++++++++++++++++pip-......................ar++++++++++++++++++++++++++++++++tkkhfgmt++++++++++++++++++++++++++++++++++++++++++++++++++++++++++++o+++++++kfqvpnrv+
(PID.TID 0000.0001) // =======================================================
[...]
           Vector  Mate for  VFLUX        Diagnostic #    212  UFLUX    exists 
 Computing Diagnostic #    186  TSR          Counter:      10   Parms: SM P    U1      
 Computing Diagnostic #    187  OLR          Counter:      10   Parms: SM P    U1      
 Computing Diagnostic #    188  RADSWG       Counter:      10   Parms: SM P    L1      
 Computing Diagnostic #    189  RADLWG       Counter:      10   Parms: SM      L1      
 Computing Diagnostic #    190  HFLUX        Counter:      10   Parms: SM      L1      
 Computing Diagnostic #    191  EVAP         Counter:      10   Parms: SM      L1      
 Computing Diagnostic #    192  PRECON       Counter:      10   Parms: SM P    L1      
 Computing Diagnostic #    193  PRECLS       Counter:      10   Parms: SM      M1      
 Computing Diagnostic #    194  CLDFRC       Counter:      10   Parms: SM P    M1      
 Computing Diagnostic #    195  CLDPRS       Counter:      10   Parms: SM PC   M1      
       use Counter Mate for  CLDPRS       Diagnostic #    194  CLDFRC  
 Computing Diagnostic #    196  CLDMAS       Counter:      10   Parms: SM P    L1      
 Computing Diagnostic #    197  DRAG         Counter:      10   Parms: SM P    L1      
 Computing Diagnostic #    198  WINDS        Counter:      10   Parms: SM P    L1      
 Computing Diagnostic #    199  TS           Counter:      10   Parms: SM      L1      
 Computing Diagnostic #    200  QS           Counter:      10   Parms: SM P    L1      
 Computing Diagnostic #    201  ENPREC       Counter:      10   Parms: SM      M1      
 Computing Diagnostic #    202  ALBVISDF     Counter:      10   Parms: SM P    L1      
 Computing Diagnostic #    216  DTSIMPL      Counter:      10   Parms: SM P    L1      
 Computing Diagnostic #     28  RELHUM       Counter:      10   Parms: SMR     MR      
 Computing Diagnostic #    176  DIABT        Counter:      10   Parms: SMr     MR      
 Computing Diagnostic #    177  DIABQ        Counter:      10   Parms: SMr     MR      
 Computing Diagnostic #    178  RADSW        Counter:      10   Parms: SM      ML      
 Computing Diagnostic #    179  RADLW        Counter:      10   Parms: SM      ML      
 Computing Diagnostic #    180  DTCONV       Counter:      10   Parms: SM      ML      
 Computing Diagnostic #    182  DTLS         Counter:      10   Parms: SM      ML      
 Computing Diagnostic #    183  DQCONV       Counter:      10   Parms: SM      MR      
 Computing Diagnostic #    185  DQLS         Counter:      10   Parms: SM      ML      
 Computing Diagnostic #    229  SI_Fract     Counter:      10   Parms: SM P    M1      
 Computing Diagnostic #    230  SI_Thick     Counter:      10   Parms: SM PC   M1      
       use Counter Mate for  SI_Thick     Diagnostic #    229  SI_Fract
 Computing Diagnostic #    231  SI_SnowH     Counter:      10   Parms: SM PC   M1      
       use Counter Mate for  SI_SnowH     Diagnostic #    229  SI_Fract
 Computing Diagnostic #    232  SI_Tsrf      Counter:      10   Parms: SM  C   M1      
       use Counter Mate for  SI_Tsrf      Diagnostic #    229  SI_Fract
 Computing Diagnostic #    233  SI_Tice1     Counter:      10   Parms: SM  C   M1      
       use Counter Mate for  SI_Tice1     Diagnostic #    229  SI_Fract
 Computing Diagnostic #    234  SI_Tice2     Counter:      10   Parms: SM  C   M1      
       use Counter Mate for  SI_Tice2     Diagnostic #    229  SI_Fract
 Computing Diagnostic #    235  SI_Qice1     Counter:      10   Parms: SM  C   M1      
       use Counter Mate for  SI_Qice1     Diagnostic #    230  SI_Thick
 Computing Diagnostic #    236  SI_Qice2     Counter:      10   Parms: SM  C   M1      
       use Counter Mate for  SI_Qice2     Diagnostic #    230  SI_Thick
 Computing Diagnostic #    237  SIsnwAge     Counter:      10   Parms: SM P    M1      
 Computing Diagnostic #    240  SIsnwPrc     Counter:      10   Parms: SM  C   M1      
       use Counter Mate for  SIsnwPrc     Diagnostic #    238  SI_FrcFx
 Computing Diagnostic #    239  SIalbedo     Counter:      10   Parms: SM PC   M1      
       use Counter Mate for  SIalbedo     Diagnostic #    238  SI_FrcFx
 Computing Diagnostic #    243  SIflx2oc     Counter:      10   Parms: SM      M1      
 Computing Diagnostic #    244  SIfrw2oc     Counter:      10   Parms: SM      M1      
 Computing Diagnostic #    245  SIsaltFx     Counter:      10   Parms: SM      M1      
(PID.TID 0000.0001) DIAGSTATS_CLOSE_IO: close file: dynStDiag.0000000000.txt , unit=     9
(PID.TID 0000.0001) DIAGSTATS_CLOSE_IO: close file: landStDiag.0000000000.txt , unit=    10
(PID.TID 0000.0001) DIAGSTATS_CLOSE_IO: close file: thSIceStDiag.0000000000.txt , unit=    16
(PID.TID 0000.0001) %CHECKPOINT        10 ckptA
(PID.TID 0000.0001)   Seconds in section "ALL                    [THE_MODEL_MAIN]":
(PID.TID 0000.0001)           User time:   7.2500000000000000
(PID.TID 0000.0001)         System time:  4.00000000000000008E-002
(PID.TID 0000.0001)     Wall clock time:   7.3083240985870361
(PID.TID 0000.0001)          No. starts:           1
(PID.TID 0000.0001)           No. stops:           1
(PID.TID 0000.0001)   Seconds in section "INITIALISE_FIXED       [THE_MODEL_MAIN]":
(PID.TID 0000.0001)           User time:  0.19000000000000000
(PID.TID 0000.0001)         System time:  1.00000000000000002E-002
(PID.TID 0000.0001)     Wall clock time:  0.20264101028442383
(PID.TID 0000.0001)          No. starts:           1
(PID.TID 0000.0001)           No. stops:           1
(PID.TID 0000.0001)   Seconds in section "THE_MAIN_LOOP          [THE_MODEL_MAIN]":
(PID.TID 0000.0001)           User time:   7.0599999999999996
(PID.TID 0000.0001)         System time:  2.99999999999999989E-002
(PID.TID 0000.0001)     Wall clock time:   7.1056358814239502
(PID.TID 0000.0001)          No. starts:           1
(PID.TID 0000.0001)           No. stops:           1
(PID.TID 0000.0001)   Seconds in section "INITIALISE_VARIA    [THE_MAIN_LOOP]":
(PID.TID 0000.0001)           User time:  0.23999999999999999
(PID.TID 0000.0001)         System time:  1.00000000000000002E-002
(PID.TID 0000.0001)     Wall clock time:  0.25849294662475586
(PID.TID 0000.0001)          No. starts:           1
(PID.TID 0000.0001)           No. stops:           1
(PID.TID 0000.0001)   Seconds in section "MAIN LOOP           [THE_MAIN_LOOP]":
(PID.TID 0000.0001)           User time:   6.8200000000000003
(PID.TID 0000.0001)         System time:  2.00000000000000004E-002
(PID.TID 0000.0001)     Wall clock time:   6.8471119403839111
(PID.TID 0000.0001)          No. starts:           1
(PID.TID 0000.0001)           No. stops:           1
(PID.TID 0000.0001)   Seconds in section "FORWARD_STEP        [THE_MAIN_LOOP]":
(PID.TID 0000.0001)           User time:   6.8199999999999985
(PID.TID 0000.0001)         System time:  1.99999999999999969E-002
(PID.TID 0000.0001)     Wall clock time:   6.8470079898834229
(PID.TID 0000.0001)          No. starts:          10
(PID.TID 0000.0001)           No. stops:          10
(PID.TID 0000.0001)   Seconds in section "DO_STATEVARS_DIAGS  [FORWARD_STEP]":
(PID.TID 0000.0001)           User time:  0.33000000000000096
(PID.TID 0000.0001)         System time:  9.99999999999999500E-003
(PID.TID 0000.0001)     Wall clock time:  0.34894895553588867
(PID.TID 0000.0001)          No. starts:          30
(PID.TID 0000.0001)           No. stops:          30
(PID.TID 0000.0001)   Seconds in section "LOAD_FIELDS_DRIVER  [FORWARD_STEP]":
(PID.TID 0000.0001)           User time:  1.99999999999995737E-002
(PID.TID 0000.0001)         System time:   0.0000000000000000
(PID.TID 0000.0001)     Wall clock time:  1.45502090454101563E-002
(PID.TID 0000.0001)          No. starts:          10
(PID.TID 0000.0001)           No. stops:          10
(PID.TID 0000.0001)   Seconds in section "EXTERNAL_FLDS_LOAD [LOAD_FLDS_DRIVER]":
(PID.TID 0000.0001)           User time:   0.0000000000000000
(PID.TID 0000.0001)         System time:   0.0000000000000000
(PID.TID 0000.0001)     Wall clock time:  1.06334686279296875E-004
(PID.TID 0000.0001)          No. starts:          10
(PID.TID 0000.0001)           No. stops:          10
(PID.TID 0000.0001)   Seconds in section "DO_ATMOSPHERIC_PHYS [FORWARD_STEP]":
(PID.TID 0000.0001)           User time:   1.0800000000000010
(PID.TID 0000.0001)         System time:   0.0000000000000000
(PID.TID 0000.0001)     Wall clock time:   1.0467779636383057
(PID.TID 0000.0001)          No. starts:          10
(PID.TID 0000.0001)           No. stops:          10
(PID.TID 0000.0001)   Seconds in section "AIM_DO_PHYSICS [DO_ATMOSPHERIC_PHYS]":
(PID.TID 0000.0001)           User time:   1.0800000000000010
(PID.TID 0000.0001)         System time:   0.0000000000000000
(PID.TID 0000.0001)     Wall clock time:   1.0465660095214844
(PID.TID 0000.0001)          No. starts:          10
(PID.TID 0000.0001)           No. stops:          10
(PID.TID 0000.0001)   Seconds in section "DO_OCEANIC_PHYS     [FORWARD_STEP]":
(PID.TID 0000.0001)           User time:   0.0000000000000000
(PID.TID 0000.0001)         System time:   0.0000000000000000
(PID.TID 0000.0001)     Wall clock time:  5.29527664184570313E-004
(PID.TID 0000.0001)          No. starts:          10
(PID.TID 0000.0001)           No. stops:          10
(PID.TID 0000.0001)   Seconds in section "DYNAMICS            [FORWARD_STEP]":
(PID.TID 0000.0001)           User time:   1.4199999999999990
(PID.TID 0000.0001)         System time:   0.0000000000000000
(PID.TID 0000.0001)     Wall clock time:   1.4626483917236328
(PID.TID 0000.0001)          No. starts:          10
(PID.TID 0000.0001)           No. stops:          10
(PID.TID 0000.0001)   Seconds in section "UPDATE_R_STAR       [FORWARD_STEP]":
(PID.TID 0000.0001)           User time:  8.99999999999998579E-002
(PID.TID 0000.0001)         System time:   0.0000000000000000
(PID.TID 0000.0001)     Wall clock time:  7.73496627807617188E-002
(PID.TID 0000.0001)          No. starts:          10
(PID.TID 0000.0001)           No. stops:          10
(PID.TID 0000.0001)   Seconds in section "UPDATE_CG2D         [FORWARD_STEP]":
(PID.TID 0000.0001)           User time:  8.00000000000000711E-002
(PID.TID 0000.0001)         System time:   0.0000000000000000
(PID.TID 0000.0001)     Wall clock time:  5.12590408325195313E-002
(PID.TID 0000.0001)          No. starts:          10
(PID.TID 0000.0001)           No. stops:          10
(PID.TID 0000.0001)   Seconds in section "SOLVE_FOR_PRESSURE  [FORWARD_STEP]":
(PID.TID 0000.0001)           User time:  0.45000000000000107
(PID.TID 0000.0001)         System time:   0.0000000000000000
(PID.TID 0000.0001)     Wall clock time:  0.48122811317443848
(PID.TID 0000.0001)          No. starts:          10
(PID.TID 0000.0001)           No. stops:          10
(PID.TID 0000.0001)   Seconds in section "MOM_CORRECTION_STEP [FORWARD_STEP]":
(PID.TID 0000.0001)           User time:  0.48000000000000043
(PID.TID 0000.0001)         System time:   0.0000000000000000
(PID.TID 0000.0001)     Wall clock time:  0.48126196861267090
(PID.TID 0000.0001)          No. starts:          10
(PID.TID 0000.0001)           No. stops:          10
(PID.TID 0000.0001)   Seconds in section "SHAP_FILT_UV       [MOM_CORR_STEP]":
(PID.TID 0000.0001)           User time:  0.41000000000000014
(PID.TID 0000.0001)         System time:   0.0000000000000000
(PID.TID 0000.0001)     Wall clock time:  0.43961381912231445
(PID.TID 0000.0001)          No. starts:          10
(PID.TID 0000.0001)           No. stops:          10
(PID.TID 0000.0001)   Seconds in section "INTEGR_CONTINUITY   [FORWARD_STEP]":
(PID.TID 0000.0001)           User time:  0.12999999999999901
(PID.TID 0000.0001)         System time:   0.0000000000000000
(PID.TID 0000.0001)     Wall clock time:  0.12913417816162109
(PID.TID 0000.0001)          No. starts:          10
(PID.TID 0000.0001)           No. stops:          10
(PID.TID 0000.0001)   Seconds in section "CALC_R_STAR         [FORWARD_STEP]":
(PID.TID 0000.0001)           User time:  5.99999999999987210E-002
(PID.TID 0000.0001)         System time:   0.0000000000000000
(PID.TID 0000.0001)     Wall clock time:  4.55560684204101563E-002
(PID.TID 0000.0001)          No. starts:          10
(PID.TID 0000.0001)           No. stops:          10
(PID.TID 0000.0001)   Seconds in section "BLOCKING_EXCHANGES  [FORWARD_STEP]":
(PID.TID 0000.0001)           User time:  9.99999999999978684E-003
(PID.TID 0000.0001)         System time:   0.0000000000000000
(PID.TID 0000.0001)     Wall clock time:  3.63919734954833984E-002
(PID.TID 0000.0001)          No. starts:          20
(PID.TID 0000.0001)           No. stops:          20
(PID.TID 0000.0001)   Seconds in section "THERMODYNAMICS      [FORWARD_STEP]":
(PID.TID 0000.0001)           User time:  0.81000000000000139
(PID.TID 0000.0001)         System time:   0.0000000000000000
(PID.TID 0000.0001)     Wall clock time:  0.82073402404785156
(PID.TID 0000.0001)          No. starts:          10
(PID.TID 0000.0001)           No. stops:          10
(PID.TID 0000.0001)   Seconds in section "TRC_CORRECTION_STEP [FORWARD_STEP]":
(PID.TID 0000.0001)           User time:  0.49999999999999911
(PID.TID 0000.0001)         System time:   0.0000000000000000
(PID.TID 0000.0001)     Wall clock time:  0.50416326522827148
(PID.TID 0000.0001)          No. starts:          10
(PID.TID 0000.0001)           No. stops:          10
(PID.TID 0000.0001)   Seconds in section "SHAP_FILT_TS       [TRC_CORR_STEP]":
(PID.TID 0000.0001)           User time:  0.49999999999999911
(PID.TID 0000.0001)         System time:   0.0000000000000000
(PID.TID 0000.0001)     Wall clock time:  0.48634004592895508
(PID.TID 0000.0001)          No. starts:          10
(PID.TID 0000.0001)           No. stops:          10
(PID.TID 0000.0001)   Seconds in section "DO_STATEVARS_TAVE   [FORWARD_STEP]":
(PID.TID 0000.0001)           User time:  0.36999999999999922
(PID.TID 0000.0001)         System time:   0.0000000000000000
(PID.TID 0000.0001)     Wall clock time:  0.33570265769958496
(PID.TID 0000.0001)          No. starts:          10
(PID.TID 0000.0001)           No. stops:          10
(PID.TID 0000.0001)   Seconds in section "MONITOR             [FORWARD_STEP]":
(PID.TID 0000.0001)           User time:  0.70999999999999996
(PID.TID 0000.0001)         System time:   0.0000000000000000
(PID.TID 0000.0001)     Wall clock time:  0.71643972396850586
(PID.TID 0000.0001)          No. starts:          10
(PID.TID 0000.0001)           No. stops:          10
(PID.TID 0000.0001)   Seconds in section "DO_THE_MODEL_IO     [FORWARD_STEP]":
(PID.TID 0000.0001)           User time:  0.24999999999999911
(PID.TID 0000.0001)         System time:   0.0000000000000000
(PID.TID 0000.0001)     Wall clock time:  0.25815534591674805
(PID.TID 0000.0001)          No. starts:          10
(PID.TID 0000.0001)           No. stops:          10
(PID.TID 0000.0001)   Seconds in section "DO_WRITE_PICKUP     [FORWARD_STEP]":
(PID.TID 0000.0001)           User time:  3.00000000000002487E-002
(PID.TID 0000.0001)         System time:  1.00000000000000019E-002
(PID.TID 0000.0001)     Wall clock time:  3.38289737701416016E-002
(PID.TID 0000.0001)          No. starts:          10
(PID.TID 0000.0001)           No. stops:          10
(PID.TID 0000.0001) // ======================================================
(PID.TID 0000.0001) // Tile <-> Tile communication statistics
(PID.TID 0000.0001) // ======================================================
(PID.TID 0000.0001) // o Tile number: 000001
(PID.TID 0000.0001) //         No. X exchanges =              0
(PID.TID 0000.0001) //            Max. X spins =              0
(PID.TID 0000.0001) //            Min. X spins =     1000000000
(PID.TID 0000.0001) //          Total. X spins =              0
(PID.TID 0000.0001) //            Avg. X spins =       0.00E+00
(PID.TID 0000.0001) //         No. Y exchanges =              0
(PID.TID 0000.0001) //            Max. Y spins =              0
(PID.TID 0000.0001) //            Min. Y spins =     1000000000
(PID.TID 0000.0001) //          Total. Y spins =              0
(PID.TID 0000.0001) //            Avg. Y spins =       0.00E+00
(PID.TID 0000.0001) // o Tile number: 000002
(PID.TID 0000.0001) //         No. X exchanges =              0
(PID.TID 0000.0001) //            Max. X spins =              0
(PID.TID 0000.0001) //            Min. X spins =     1000000000
(PID.TID 0000.0001) //          Total. X spins =              0
(PID.TID 0000.0001) //            Avg. X spins =       0.00E+00
(PID.TID 0000.0001) //         No. Y exchanges =              0
(PID.TID 0000.0001) //            Max. Y spins =              0
(PID.TID 0000.0001) //            Min. Y spins =     1000000000
(PID.TID 0000.0001) //          Total. Y spins =              0
(PID.TID 0000.0001) //            Avg. Y spins =       0.00E+00
(PID.TID 0000.0001) // o Tile number: 000003
(PID.TID 0000.0001) //         No. X exchanges =              0
(PID.TID 0000.0001) //            Max. X spins =              0
(PID.TID 0000.0001) //            Min. X spins =     1000000000
(PID.TID 0000.0001) //          Total. X spins =              0
(PID.TID 0000.0001) //            Avg. X spins =       0.00E+00
(PID.TID 0000.0001) //         No. Y exchanges =              0
(PID.TID 0000.0001) //            Max. Y spins =              0
(PID.TID 0000.0001) //            Min. Y spins =     1000000000
(PID.TID 0000.0001) //          Total. Y spins =              0
(PID.TID 0000.0001) //            Avg. Y spins =       0.00E+00
(PID.TID 0000.0001) // o Tile number: 000004
(PID.TID 0000.0001) //         No. X exchanges =              0
(PID.TID 0000.0001) //            Max. X spins =              0
(PID.TID 0000.0001) //            Min. X spins =     1000000000
(PID.TID 0000.0001) //          Total. X spins =              0
(PID.TID 0000.0001) //            Avg. X spins =       0.00E+00
(PID.TID 0000.0001) //         No. Y exchanges =              0
(PID.TID 0000.0001) //            Max. Y spins =              0
(PID.TID 0000.0001) //            Min. Y spins =     1000000000
(PID.TID 0000.0001) //          Total. Y spins =              0
(PID.TID 0000.0001) //            Avg. Y spins =       0.00E+00
(PID.TID 0000.0001) // o Tile number: 000005
(PID.TID 0000.0001) //         No. X exchanges =              0
(PID.TID 0000.0001) //            Max. X spins =              0
(PID.TID 0000.0001) //            Min. X spins =     1000000000
(PID.TID 0000.0001) //          Total. X spins =              0
(PID.TID 0000.0001) //            Avg. X spins =       0.00E+00
(PID.TID 0000.0001) //         No. Y exchanges =              0
(PID.TID 0000.0001) //            Max. Y spins =              0
(PID.TID 0000.0001) //            Min. Y spins =     1000000000
(PID.TID 0000.0001) //          Total. Y spins =              0
(PID.TID 0000.0001) //            Avg. Y spins =       0.00E+00
(PID.TID 0000.0001) // o Tile number: 000006
(PID.TID 0000.0001) //         No. X exchanges =              0
(PID.TID 0000.0001) //            Max. X spins =              0
(PID.TID 0000.0001) //            Min. X spins =     1000000000
(PID.TID 0000.0001) //          Total. X spins =              0
(PID.TID 0000.0001) //            Avg. X spins =       0.00E+00
(PID.TID 0000.0001) //         No. Y exchanges =              0
(PID.TID 0000.0001) //            Max. Y spins =              0
(PID.TID 0000.0001) //            Min. Y spins =     1000000000
(PID.TID 0000.0001) //          Total. Y spins =              0
(PID.TID 0000.0001) //            Avg. Y spins =       0.00E+00
(PID.TID 0000.0001) // o Thread number: 000001
(PID.TID 0000.0001) //            No. barriers =          10250
(PID.TID 0000.0001) //      Max. barrier spins =              1
(PID.TID 0000.0001) //      Min. barrier spins =              1
(PID.TID 0000.0001) //     Total barrier spins =          10250
(PID.TID 0000.0001) //      Avg. barrier spins =       1.00E+00
PROGRAM MAIN: Execution ended Normally
